gem5 Simulator System.  http://gem5.org
gem5 is copyrighted software; use the --copyright option for details.

gem5 compiled Sep 29 2020 01:47:08
gem5 started Sep 29 2020 01:47:37
gem5 executing on study.centos.wj, pid 12771
command line: ./build/NULL/gem5.debug --outdir hh configs/example/garnet_synth_traffic.py --topology=Ring --num-cpus=12 --num-dirs=12 --mesh-rows=1 --network=garnet2.0 --inj-vnet=2 --injectionrate=0 --token-packet-length=6 --network-task-graph-enable --task-graph-file=./my_benchmarks/09_24/Application_01.stp --execution-iteration=1 --routing-algorithm=2 --vcs-per-vnet=2 --link-width-bits=256 --architecture-file=./my_benchmarks/09_24/Heterogeneous_SoC_with_Ring_Topology.arch

Global frequency set at 1000000000 ticks per second
warn: rounding error > tolerance
    1.250000 rounded to 1
warn: rounding error > tolerance
    1.250000 rounded to 1
warn: rounding error > tolerance
    1.250000 rounded to 1
warn: rounding error > tolerance
    1.250000 rounded to 1
warn: rounding error > tolerance
    1.250000 rounded to 1
warn: rounding error > tolerance
    1.250000 rounded to 1
warn: rounding error > tolerance
    1.250000 rounded to 1
warn: rounding error > tolerance
    1.250000 rounded to 1
warn: rounding error > tolerance
    1.250000 rounded to 1
warn: rounding error > tolerance
    1.250000 rounded to 1
warn: rounding error > tolerance
    1.250000 rounded to 1
warn: rounding error > tolerance
    1.250000 rounded to 1
warn: rounding error > tolerance
    1.250000 rounded to 1
warn: rounding error > tolerance
    1.250000 rounded to 1
warn: rounding error > tolerance
    1.250000 rounded to 1
warn: rounding error > tolerance
    1.250000 rounded to 1
warn: rounding error > tolerance
    1.250000 rounded to 1
warn: rounding error > tolerance
    1.250000 rounded to 1
warn: rounding error > tolerance
    1.250000 rounded to 1
warn: rounding error > tolerance
    1.250000 rounded to 1
warn: rounding error > tolerance
    1.250000 rounded to 1
warn: rounding error > tolerance
    1.250000 rounded to 1
warn: rounding error > tolerance
    1.250000 rounded to 1
warn: rounding error > tolerance
    1.250000 rounded to 1
warn: rounding error > tolerance
    1.250000 rounded to 1
warn: DRAM device capacity (8192 Mbytes) does not match the address range assigned (64 Mbytes)
warn: rounding error > tolerance
    1.250000 rounded to 1
warn: DRAM device capacity (8192 Mbytes) does not match the address range assigned (64 Mbytes)
warn: rounding error > tolerance
    1.250000 rounded to 1
warn: DRAM device capacity (8192 Mbytes) does not match the address range assigned (64 Mbytes)
warn: rounding error > tolerance
    1.250000 rounded to 1
warn: DRAM device capacity (8192 Mbytes) does not match the address range assigned (64 Mbytes)
warn: rounding error > tolerance
    1.250000 rounded to 1
warn: DRAM device capacity (8192 Mbytes) does not match the address range assigned (64 Mbytes)
warn: rounding error > tolerance
    1.250000 rounded to 1
warn: DRAM device capacity (8192 Mbytes) does not match the address range assigned (64 Mbytes)
warn: rounding error > tolerance
    1.250000 rounded to 1
warn: DRAM device capacity (8192 Mbytes) does not match the address range assigned (64 Mbytes)
warn: rounding error > tolerance
    1.250000 rounded to 1
warn: DRAM device capacity (8192 Mbytes) does not match the address range assigned (64 Mbytes)
warn: rounding error > tolerance
    1.250000 rounded to 1
warn: DRAM device capacity (8192 Mbytes) does not match the address range assigned (64 Mbytes)
warn: rounding error > tolerance
    1.250000 rounded to 1
warn: DRAM device capacity (8192 Mbytes) does not match the address range assigned (64 Mbytes)
warn: rounding error > tolerance
    1.250000 rounded to 1
warn: DRAM device capacity (8192 Mbytes) does not match the address range assigned (64 Mbytes)
warn: rounding error > tolerance
    1.250000 rounded to 1
warn: DRAM device capacity (8192 Mbytes) does not match the address range assigned (64 Mbytes)
**********************
Core ID -> Node ID

0	0
1	1
2	2
3	2
4	3
5	4
6	4
7	4
8	5
9	6
10	7
11	8
12	8
13	8
14	9
15	10
16	10
17	10
18	10
19	11

**********************
info: Construct Node -./my_benchmarks/09_24/Heterogeneous_SoC_with_Ring_Topology.arch - successfully !

Node ID: 0	Number of Cores: 1
	Core ID: 0	Core Name: HQM	Number of Threads: 1
Node ID: 1	Number of Cores: 1
	Core ID: 1	Core Name: Core-0	Number of Threads: 4
Node ID: 2	Number of Cores: 2
	Core ID: 2	Core Name: PE-1	Number of Threads: 25
	Core ID: 3	Core Name: PE-2	Number of Threads: 25
Node ID: 3	Number of Cores: 1
	Core ID: 4	Core Name: DDR-0	Number of Threads: 1
Node ID: 4	Number of Cores: 3
	Core ID: 5	Core Name: PE-3	Number of Threads: 25
	Core ID: 6	Core Name: PE-4	Number of Threads: 25
	Core ID: 7	Core Name: PE-5	Number of Threads: 1
Node ID: 5	Number of Cores: 1
	Core ID: 8	Core Name: PE-13	Number of Threads: 1
Node ID: 6	Number of Cores: 1
	Core ID: 9	Core Name: Core-1	Number of Threads: 4
Node ID: 7	Number of Cores: 1
	Core ID: 10	Core Name: Core-2	Number of Threads: 4
Node ID: 8	Number of Cores: 3
	Core ID: 11	Core Name: PE-6	Number of Threads: 1
	Core ID: 12	Core Name: PE-7	Number of Threads: 60
	Core ID: 13	Core Name: PE-8	Number of Threads: 1
Node ID: 9	Number of Cores: 1
	Core ID: 14	Core Name: DDR-1	Number of Threads: 1
Node ID: 10	Number of Cores: 4
	Core ID: 15	Core Name: PE-9	Number of Threads: 1
	Core ID: 16	Core Name: PE-10	Number of Threads: 1
	Core ID: 17	Core Name: PE-11	Number of Threads: 1
	Core ID: 18	Core Name: PE-12	Number of Threads: 1
Node ID: 11	Number of Cores: 1
	Core ID: 19	Core Name: Core-3	Number of Threads: 4

**********************
**********************
Traffic Information
**********************
Node 0 with 1 Cores
**********************
Core Index:     0	Core Id:     0	Core Name:     HQM	Task List Length:    40
	Task     5	shedule     0
	Task   107	shedule     1
	Task   210	shedule     2
	Task   322	shedule     3
	Task   435	shedule     4
	Task   537	shedule     5
	Task   640	shedule     6
	Task   752	shedule     7
	Task   865	shedule     8
	Task   967	shedule     9
	Task  1070	shedule    10
	Task  1182	shedule    11
	Task  1295	shedule    12
	Task  1397	shedule    13
	Task  1500	shedule    14
	Task  1612	shedule    15
	Task  1725	shedule    16
	Task  1827	shedule    17
	Task  1930	shedule    18
	Task  2042	shedule    19
	Task  2155	shedule    20
	Task  2257	shedule    21
	Task  2360	shedule    22
	Task  2472	shedule    23
	Task  2585	shedule    24
	Task  2687	shedule    25
	Task  2790	shedule    26
	Task  2902	shedule    27
	Task  3015	shedule    28
	Task  3117	shedule    29
	Task  3220	shedule    30
	Task  3332	shedule    31
	Task  3445	shedule    32
	Task  3547	shedule    33
	Task  3650	shedule    34
	Task  3762	shedule    35
	Task  3875	shedule    36
	Task  3977	shedule    37
	Task  4080	shedule    38
	Task  4192	shedule    39

**********************
Node 1 with 1 Cores
**********************
Core Index:     0	Core Id:     1	Core Name:  Core-0	Task List Length:   153
	Task   109	shedule     0
	Task   111	shedule     1
	Task   113	shedule     2
	Task   115	shedule     3
	Task   117	shedule     4
	Task   119	shedule     5
	Task   121	shedule     6
	Task   123	shedule     7
	Task   125	shedule     8
	Task   127	shedule     9
	Task   129	shedule    10
	Task   131	shedule    11
	Task   133	shedule    12
	Task   135	shedule    13
	Task   137	shedule    14
	Task   139	shedule    15
	Task   141	shedule    16
	Task   143	shedule    17
	Task   145	shedule    18
	Task   147	shedule    19
	Task   149	shedule    20
	Task   151	shedule    21
	Task   153	shedule    22
	Task   155	shedule    23
	Task   157	shedule    24
	Task   159	shedule    25
	Task   161	shedule    26
	Task   163	shedule    27
	Task   165	shedule    28
	Task   167	shedule    29
	Task   169	shedule    30
	Task   171	shedule    31
	Task   173	shedule    32
	Task   175	shedule    33
	Task   177	shedule    34
	Task   179	shedule    35
	Task   181	shedule    36
	Task   183	shedule    37
	Task   185	shedule    38
	Task   187	shedule    39
	Task   189	shedule    40
	Task   191	shedule    41
	Task   193	shedule    42
	Task   195	shedule    43
	Task   197	shedule    44
	Task   199	shedule    45
	Task   201	shedule    46
	Task   203	shedule    47
	Task   205	shedule    48
	Task   207	shedule    49
	Task   209	shedule    50
	Task  1829	shedule    51
	Task  1831	shedule    52
	Task  1833	shedule    53
	Task  1835	shedule    54
	Task  1837	shedule    55
	Task  1839	shedule    56
	Task  1841	shedule    57
	Task  1843	shedule    58
	Task  1845	shedule    59
	Task  1847	shedule    60
	Task  1849	shedule    61
	Task  1851	shedule    62
	Task  1853	shedule    63
	Task  1855	shedule    64
	Task  1857	shedule    65
	Task  1859	shedule    66
	Task  1861	shedule    67
	Task  1863	shedule    68
	Task  1865	shedule    69
	Task  1867	shedule    70
	Task  1869	shedule    71
	Task  1871	shedule    72
	Task  1873	shedule    73
	Task  1875	shedule    74
	Task  1877	shedule    75
	Task  1879	shedule    76
	Task  1881	shedule    77
	Task  1883	shedule    78
	Task  1885	shedule    79
	Task  1887	shedule    80
	Task  1889	shedule    81
	Task  1891	shedule    82
	Task  1893	shedule    83
	Task  1895	shedule    84
	Task  1897	shedule    85
	Task  1899	shedule    86
	Task  1901	shedule    87
	Task  1903	shedule    88
	Task  1905	shedule    89
	Task  1907	shedule    90
	Task  1909	shedule    91
	Task  1911	shedule    92
	Task  1913	shedule    93
	Task  1915	shedule    94
	Task  1917	shedule    95
	Task  1919	shedule    96
	Task  1921	shedule    97
	Task  1923	shedule    98
	Task  1925	shedule    99
	Task  1927	shedule   100
	Task  1929	shedule   101
	Task  3549	shedule   102
	Task  3551	shedule   103
	Task  3553	shedule   104
	Task  3555	shedule   105
	Task  3557	shedule   106
	Task  3559	shedule   107
	Task  3561	shedule   108
	Task  3563	shedule   109
	Task  3565	shedule   110
	Task  3567	shedule   111
	Task  3569	shedule   112
	Task  3571	shedule   113
	Task  3573	shedule   114
	Task  3575	shedule   115
	Task  3577	shedule   116
	Task  3579	shedule   117
	Task  3581	shedule   118
	Task  3583	shedule   119
	Task  3585	shedule   120
	Task  3587	shedule   121
	Task  3589	shedule   122
	Task  3591	shedule   123
	Task  3593	shedule   124
	Task  3595	shedule   125
	Task  3597	shedule   126
	Task  3599	shedule   127
	Task  3601	shedule   128
	Task  3603	shedule   129
	Task  3605	shedule   130
	Task  3607	shedule   131
	Task  3609	shedule   132
	Task  3611	shedule   133
	Task  3613	shedule   134
	Task  3615	shedule   135
	Task  3617	shedule   136
	Task  3619	shedule   137
	Task  3621	shedule   138
	Task  3623	shedule   139
	Task  3625	shedule   140
	Task  3627	shedule   141
	Task  3629	shedule   142
	Task  3631	shedule   143
	Task  3633	shedule   144
	Task  3635	shedule   145
	Task  3637	shedule   146
	Task  3639	shedule   147
	Task  3641	shedule   148
	Task  3643	shedule   149
	Task  3645	shedule   150
	Task  3647	shedule   151
	Task  3649	shedule   152

**********************
Node 2 with 2 Cores
**********************
Core Index:     0	Core Id:     2	Core Name:    PE-1	Task List Length:   459
	Task     6	shedule     0
	Task     8	shedule     1
	Task    10	shedule     2
	Task    12	shedule     3
	Task    14	shedule     4
	Task    16	shedule     5
	Task    18	shedule     6
	Task    20	shedule     7
	Task    22	shedule     8
	Task    24	shedule     9
	Task    26	shedule    10
	Task    28	shedule    11
	Task    30	shedule    12
	Task    32	shedule    13
	Task    34	shedule    14
	Task    36	shedule    15
	Task    38	shedule    16
	Task    40	shedule    17
	Task    42	shedule    18
	Task    44	shedule    19
	Task    46	shedule    20
	Task    48	shedule    21
	Task    50	shedule    22
	Task    52	shedule    23
	Task    54	shedule    24
	Task    56	shedule    25
	Task    58	shedule    26
	Task    60	shedule    27
	Task    62	shedule    28
	Task    64	shedule    29
	Task    66	shedule    30
	Task    68	shedule    31
	Task    70	shedule    32
	Task    72	shedule    33
	Task    74	shedule    34
	Task    76	shedule    35
	Task    78	shedule    36
	Task    80	shedule    37
	Task    82	shedule    38
	Task    84	shedule    39
	Task    86	shedule    40
	Task    88	shedule    41
	Task    90	shedule    42
	Task    92	shedule    43
	Task    94	shedule    44
	Task    96	shedule    45
	Task    98	shedule    46
	Task   100	shedule    47
	Task   102	shedule    48
	Task   104	shedule    49
	Task   106	shedule    50
	Task   211	shedule    51
	Task   213	shedule    52
	Task   215	shedule    53
	Task   217	shedule    54
	Task   219	shedule    55
	Task   221	shedule    56
	Task   223	shedule    57
	Task   225	shedule    58
	Task   227	shedule    59
	Task   229	shedule    60
	Task   231	shedule    61
	Task   233	shedule    62
	Task   235	shedule    63
	Task   237	shedule    64
	Task   239	shedule    65
	Task   241	shedule    66
	Task   243	shedule    67
	Task   245	shedule    68
	Task   247	shedule    69
	Task   249	shedule    70
	Task   251	shedule    71
	Task   253	shedule    72
	Task   255	shedule    73
	Task   257	shedule    74
	Task   259	shedule    75
	Task   261	shedule    76
	Task   263	shedule    77
	Task   265	shedule    78
	Task   267	shedule    79
	Task   269	shedule    80
	Task   271	shedule    81
	Task   273	shedule    82
	Task   275	shedule    83
	Task   277	shedule    84
	Task   279	shedule    85
	Task   281	shedule    86
	Task   283	shedule    87
	Task   285	shedule    88
	Task   287	shedule    89
	Task   289	shedule    90
	Task   291	shedule    91
	Task   293	shedule    92
	Task   295	shedule    93
	Task   297	shedule    94
	Task   299	shedule    95
	Task   301	shedule    96
	Task   303	shedule    97
	Task   305	shedule    98
	Task   307	shedule    99
	Task   309	shedule   100
	Task   311	shedule   101
	Task   323	shedule   102
	Task   325	shedule   103
	Task   327	shedule   104
	Task   329	shedule   105
	Task   331	shedule   106
	Task   333	shedule   107
	Task   335	shedule   108
	Task   337	shedule   109
	Task   339	shedule   110
	Task   341	shedule   111
	Task   343	shedule   112
	Task   345	shedule   113
	Task   347	shedule   114
	Task   349	shedule   115
	Task   351	shedule   116
	Task   353	shedule   117
	Task   355	shedule   118
	Task   357	shedule   119
	Task   359	shedule   120
	Task   361	shedule   121
	Task   363	shedule   122
	Task   365	shedule   123
	Task   367	shedule   124
	Task   369	shedule   125
	Task   371	shedule   126
	Task   373	shedule   127
	Task   375	shedule   128
	Task   377	shedule   129
	Task   379	shedule   130
	Task   381	shedule   131
	Task   383	shedule   132
	Task   385	shedule   133
	Task   387	shedule   134
	Task   389	shedule   135
	Task   391	shedule   136
	Task   393	shedule   137
	Task   395	shedule   138
	Task   397	shedule   139
	Task   399	shedule   140
	Task   401	shedule   141
	Task   403	shedule   142
	Task   405	shedule   143
	Task   407	shedule   144
	Task   409	shedule   145
	Task   411	shedule   146
	Task   413	shedule   147
	Task   415	shedule   148
	Task   417	shedule   149
	Task   419	shedule   150
	Task   421	shedule   151
	Task   423	shedule   152
	Task  1726	shedule   153
	Task  1728	shedule   154
	Task  1730	shedule   155
	Task  1732	shedule   156
	Task  1734	shedule   157
	Task  1736	shedule   158
	Task  1738	shedule   159
	Task  1740	shedule   160
	Task  1742	shedule   161
	Task  1744	shedule   162
	Task  1746	shedule   163
	Task  1748	shedule   164
	Task  1750	shedule   165
	Task  1752	shedule   166
	Task  1754	shedule   167
	Task  1756	shedule   168
	Task  1758	shedule   169
	Task  1760	shedule   170
	Task  1762	shedule   171
	Task  1764	shedule   172
	Task  1766	shedule   173
	Task  1768	shedule   174
	Task  1770	shedule   175
	Task  1772	shedule   176
	Task  1774	shedule   177
	Task  1776	shedule   178
	Task  1778	shedule   179
	Task  1780	shedule   180
	Task  1782	shedule   181
	Task  1784	shedule   182
	Task  1786	shedule   183
	Task  1788	shedule   184
	Task  1790	shedule   185
	Task  1792	shedule   186
	Task  1794	shedule   187
	Task  1796	shedule   188
	Task  1798	shedule   189
	Task  1800	shedule   190
	Task  1802	shedule   191
	Task  1804	shedule   192
	Task  1806	shedule   193
	Task  1808	shedule   194
	Task  1810	shedule   195
	Task  1812	shedule   196
	Task  1814	shedule   197
	Task  1816	shedule   198
	Task  1818	shedule   199
	Task  1820	shedule   200
	Task  1822	shedule   201
	Task  1824	shedule   202
	Task  1826	shedule   203
	Task  1931	shedule   204
	Task  1933	shedule   205
	Task  1935	shedule   206
	Task  1937	shedule   207
	Task  1939	shedule   208
	Task  1941	shedule   209
	Task  1943	shedule   210
	Task  1945	shedule   211
	Task  1947	shedule   212
	Task  1949	shedule   213
	Task  1951	shedule   214
	Task  1953	shedule   215
	Task  1955	shedule   216
	Task  1957	shedule   217
	Task  1959	shedule   218
	Task  1961	shedule   219
	Task  1963	shedule   220
	Task  1965	shedule   221
	Task  1967	shedule   222
	Task  1969	shedule   223
	Task  1971	shedule   224
	Task  1973	shedule   225
	Task  1975	shedule   226
	Task  1977	shedule   227
	Task  1979	shedule   228
	Task  1981	shedule   229
	Task  1983	shedule   230
	Task  1985	shedule   231
	Task  1987	shedule   232
	Task  1989	shedule   233
	Task  1991	shedule   234
	Task  1993	shedule   235
	Task  1995	shedule   236
	Task  1997	shedule   237
	Task  1999	shedule   238
	Task  2001	shedule   239
	Task  2003	shedule   240
	Task  2005	shedule   241
	Task  2007	shedule   242
	Task  2009	shedule   243
	Task  2011	shedule   244
	Task  2013	shedule   245
	Task  2015	shedule   246
	Task  2017	shedule   247
	Task  2019	shedule   248
	Task  2021	shedule   249
	Task  2023	shedule   250
	Task  2025	shedule   251
	Task  2027	shedule   252
	Task  2029	shedule   253
	Task  2031	shedule   254
	Task  2043	shedule   255
	Task  2045	shedule   256
	Task  2047	shedule   257
	Task  2049	shedule   258
	Task  2051	shedule   259
	Task  2053	shedule   260
	Task  2055	shedule   261
	Task  2057	shedule   262
	Task  2059	shedule   263
	Task  2061	shedule   264
	Task  2063	shedule   265
	Task  2065	shedule   266
	Task  2067	shedule   267
	Task  2069	shedule   268
	Task  2071	shedule   269
	Task  2073	shedule   270
	Task  2075	shedule   271
	Task  2077	shedule   272
	Task  2079	shedule   273
	Task  2081	shedule   274
	Task  2083	shedule   275
	Task  2085	shedule   276
	Task  2087	shedule   277
	Task  2089	shedule   278
	Task  2091	shedule   279
	Task  2093	shedule   280
	Task  2095	shedule   281
	Task  2097	shedule   282
	Task  2099	shedule   283
	Task  2101	shedule   284
	Task  2103	shedule   285
	Task  2105	shedule   286
	Task  2107	shedule   287
	Task  2109	shedule   288
	Task  2111	shedule   289
	Task  2113	shedule   290
	Task  2115	shedule   291
	Task  2117	shedule   292
	Task  2119	shedule   293
	Task  2121	shedule   294
	Task  2123	shedule   295
	Task  2125	shedule   296
	Task  2127	shedule   297
	Task  2129	shedule   298
	Task  2131	shedule   299
	Task  2133	shedule   300
	Task  2135	shedule   301
	Task  2137	shedule   302
	Task  2139	shedule   303
	Task  2141	shedule   304
	Task  2143	shedule   305
	Task  3446	shedule   306
	Task  3448	shedule   307
	Task  3450	shedule   308
	Task  3452	shedule   309
	Task  3454	shedule   310
	Task  3456	shedule   311
	Task  3458	shedule   312
	Task  3460	shedule   313
	Task  3462	shedule   314
	Task  3464	shedule   315
	Task  3466	shedule   316
	Task  3468	shedule   317
	Task  3470	shedule   318
	Task  3472	shedule   319
	Task  3474	shedule   320
	Task  3476	shedule   321
	Task  3478	shedule   322
	Task  3480	shedule   323
	Task  3482	shedule   324
	Task  3484	shedule   325
	Task  3486	shedule   326
	Task  3488	shedule   327
	Task  3490	shedule   328
	Task  3492	shedule   329
	Task  3494	shedule   330
	Task  3496	shedule   331
	Task  3498	shedule   332
	Task  3500	shedule   333
	Task  3502	shedule   334
	Task  3504	shedule   335
	Task  3506	shedule   336
	Task  3508	shedule   337
	Task  3510	shedule   338
	Task  3512	shedule   339
	Task  3514	shedule   340
	Task  3516	shedule   341
	Task  3518	shedule   342
	Task  3520	shedule   343
	Task  3522	shedule   344
	Task  3524	shedule   345
	Task  3526	shedule   346
	Task  3528	shedule   347
	Task  3530	shedule   348
	Task  3532	shedule   349
	Task  3534	shedule   350
	Task  3536	shedule   351
	Task  3538	shedule   352
	Task  3540	shedule   353
	Task  3542	shedule   354
	Task  3544	shedule   355
	Task  3546	shedule   356
	Task  3651	shedule   357
	Task  3653	shedule   358
	Task  3655	shedule   359
	Task  3657	shedule   360
	Task  3659	shedule   361
	Task  3661	shedule   362
	Task  3663	shedule   363
	Task  3665	shedule   364
	Task  3667	shedule   365
	Task  3669	shedule   366
	Task  3671	shedule   367
	Task  3673	shedule   368
	Task  3675	shedule   369
	Task  3677	shedule   370
	Task  3679	shedule   371
	Task  3681	shedule   372
	Task  3683	shedule   373
	Task  3685	shedule   374
	Task  3687	shedule   375
	Task  3689	shedule   376
	Task  3691	shedule   377
	Task  3693	shedule   378
	Task  3695	shedule   379
	Task  3697	shedule   380
	Task  3699	shedule   381
	Task  3701	shedule   382
	Task  3703	shedule   383
	Task  3705	shedule   384
	Task  3707	shedule   385
	Task  3709	shedule   386
	Task  3711	shedule   387
	Task  3713	shedule   388
	Task  3715	shedule   389
	Task  3717	shedule   390
	Task  3719	shedule   391
	Task  3721	shedule   392
	Task  3723	shedule   393
	Task  3725	shedule   394
	Task  3727	shedule   395
	Task  3729	shedule   396
	Task  3731	shedule   397
	Task  3733	shedule   398
	Task  3735	shedule   399
	Task  3737	shedule   400
	Task  3739	shedule   401
	Task  3741	shedule   402
	Task  3743	shedule   403
	Task  3745	shedule   404
	Task  3747	shedule   405
	Task  3749	shedule   406
	Task  3751	shedule   407
	Task  3763	shedule   408
	Task  3765	shedule   409
	Task  3767	shedule   410
	Task  3769	shedule   411
	Task  3771	shedule   412
	Task  3773	shedule   413
	Task  3775	shedule   414
	Task  3777	shedule   415
	Task  3779	shedule   416
	Task  3781	shedule   417
	Task  3783	shedule   418
	Task  3785	shedule   419
	Task  3787	shedule   420
	Task  3789	shedule   421
	Task  3791	shedule   422
	Task  3793	shedule   423
	Task  3795	shedule   424
	Task  3797	shedule   425
	Task  3799	shedule   426
	Task  3801	shedule   427
	Task  3803	shedule   428
	Task  3805	shedule   429
	Task  3807	shedule   430
	Task  3809	shedule   431
	Task  3811	shedule   432
	Task  3813	shedule   433
	Task  3815	shedule   434
	Task  3817	shedule   435
	Task  3819	shedule   436
	Task  3821	shedule   437
	Task  3823	shedule   438
	Task  3825	shedule   439
	Task  3827	shedule   440
	Task  3829	shedule   441
	Task  3831	shedule   442
	Task  3833	shedule   443
	Task  3835	shedule   444
	Task  3837	shedule   445
	Task  3839	shedule   446
	Task  3841	shedule   447
	Task  3843	shedule   448
	Task  3845	shedule   449
	Task  3847	shedule   450
	Task  3849	shedule   451
	Task  3851	shedule   452
	Task  3853	shedule   453
	Task  3855	shedule   454
	Task  3857	shedule   455
	Task  3859	shedule   456
	Task  3861	shedule   457
	Task  3863	shedule   458
Core Index:     1	Core Id:     3	Core Name:    PE-2	Task List Length:   459
	Task   436	shedule     0
	Task   438	shedule     1
	Task   440	shedule     2
	Task   442	shedule     3
	Task   444	shedule     4
	Task   446	shedule     5
	Task   448	shedule     6
	Task   450	shedule     7
	Task   452	shedule     8
	Task   454	shedule     9
	Task   456	shedule    10
	Task   458	shedule    11
	Task   460	shedule    12
	Task   462	shedule    13
	Task   464	shedule    14
	Task   466	shedule    15
	Task   468	shedule    16
	Task   470	shedule    17
	Task   472	shedule    18
	Task   474	shedule    19
	Task   476	shedule    20
	Task   478	shedule    21
	Task   480	shedule    22
	Task   482	shedule    23
	Task   484	shedule    24
	Task   486	shedule    25
	Task   488	shedule    26
	Task   490	shedule    27
	Task   492	shedule    28
	Task   494	shedule    29
	Task   496	shedule    30
	Task   498	shedule    31
	Task   500	shedule    32
	Task   502	shedule    33
	Task   504	shedule    34
	Task   506	shedule    35
	Task   508	shedule    36
	Task   510	shedule    37
	Task   512	shedule    38
	Task   514	shedule    39
	Task   516	shedule    40
	Task   518	shedule    41
	Task   520	shedule    42
	Task   522	shedule    43
	Task   524	shedule    44
	Task   526	shedule    45
	Task   528	shedule    46
	Task   530	shedule    47
	Task   532	shedule    48
	Task   534	shedule    49
	Task   536	shedule    50
	Task   641	shedule    51
	Task   643	shedule    52
	Task   645	shedule    53
	Task   647	shedule    54
	Task   649	shedule    55
	Task   651	shedule    56
	Task   653	shedule    57
	Task   655	shedule    58
	Task   657	shedule    59
	Task   659	shedule    60
	Task   661	shedule    61
	Task   663	shedule    62
	Task   665	shedule    63
	Task   667	shedule    64
	Task   669	shedule    65
	Task   671	shedule    66
	Task   673	shedule    67
	Task   675	shedule    68
	Task   677	shedule    69
	Task   679	shedule    70
	Task   681	shedule    71
	Task   683	shedule    72
	Task   685	shedule    73
	Task   687	shedule    74
	Task   689	shedule    75
	Task   691	shedule    76
	Task   693	shedule    77
	Task   695	shedule    78
	Task   697	shedule    79
	Task   699	shedule    80
	Task   701	shedule    81
	Task   703	shedule    82
	Task   705	shedule    83
	Task   707	shedule    84
	Task   709	shedule    85
	Task   711	shedule    86
	Task   713	shedule    87
	Task   715	shedule    88
	Task   717	shedule    89
	Task   719	shedule    90
	Task   721	shedule    91
	Task   723	shedule    92
	Task   725	shedule    93
	Task   727	shedule    94
	Task   729	shedule    95
	Task   731	shedule    96
	Task   733	shedule    97
	Task   735	shedule    98
	Task   737	shedule    99
	Task   739	shedule   100
	Task   741	shedule   101
	Task   753	shedule   102
	Task   755	shedule   103
	Task   757	shedule   104
	Task   759	shedule   105
	Task   761	shedule   106
	Task   763	shedule   107
	Task   765	shedule   108
	Task   767	shedule   109
	Task   769	shedule   110
	Task   771	shedule   111
	Task   773	shedule   112
	Task   775	shedule   113
	Task   777	shedule   114
	Task   779	shedule   115
	Task   781	shedule   116
	Task   783	shedule   117
	Task   785	shedule   118
	Task   787	shedule   119
	Task   789	shedule   120
	Task   791	shedule   121
	Task   793	shedule   122
	Task   795	shedule   123
	Task   797	shedule   124
	Task   799	shedule   125
	Task   801	shedule   126
	Task   803	shedule   127
	Task   805	shedule   128
	Task   807	shedule   129
	Task   809	shedule   130
	Task   811	shedule   131
	Task   813	shedule   132
	Task   815	shedule   133
	Task   817	shedule   134
	Task   819	shedule   135
	Task   821	shedule   136
	Task   823	shedule   137
	Task   825	shedule   138
	Task   827	shedule   139
	Task   829	shedule   140
	Task   831	shedule   141
	Task   833	shedule   142
	Task   835	shedule   143
	Task   837	shedule   144
	Task   839	shedule   145
	Task   841	shedule   146
	Task   843	shedule   147
	Task   845	shedule   148
	Task   847	shedule   149
	Task   849	shedule   150
	Task   851	shedule   151
	Task   853	shedule   152
	Task  2156	shedule   153
	Task  2158	shedule   154
	Task  2160	shedule   155
	Task  2162	shedule   156
	Task  2164	shedule   157
	Task  2166	shedule   158
	Task  2168	shedule   159
	Task  2170	shedule   160
	Task  2172	shedule   161
	Task  2174	shedule   162
	Task  2176	shedule   163
	Task  2178	shedule   164
	Task  2180	shedule   165
	Task  2182	shedule   166
	Task  2184	shedule   167
	Task  2186	shedule   168
	Task  2188	shedule   169
	Task  2190	shedule   170
	Task  2192	shedule   171
	Task  2194	shedule   172
	Task  2196	shedule   173
	Task  2198	shedule   174
	Task  2200	shedule   175
	Task  2202	shedule   176
	Task  2204	shedule   177
	Task  2206	shedule   178
	Task  2208	shedule   179
	Task  2210	shedule   180
	Task  2212	shedule   181
	Task  2214	shedule   182
	Task  2216	shedule   183
	Task  2218	shedule   184
	Task  2220	shedule   185
	Task  2222	shedule   186
	Task  2224	shedule   187
	Task  2226	shedule   188
	Task  2228	shedule   189
	Task  2230	shedule   190
	Task  2232	shedule   191
	Task  2234	shedule   192
	Task  2236	shedule   193
	Task  2238	shedule   194
	Task  2240	shedule   195
	Task  2242	shedule   196
	Task  2244	shedule   197
	Task  2246	shedule   198
	Task  2248	shedule   199
	Task  2250	shedule   200
	Task  2252	shedule   201
	Task  2254	shedule   202
	Task  2256	shedule   203
	Task  2361	shedule   204
	Task  2363	shedule   205
	Task  2365	shedule   206
	Task  2367	shedule   207
	Task  2369	shedule   208
	Task  2371	shedule   209
	Task  2373	shedule   210
	Task  2375	shedule   211
	Task  2377	shedule   212
	Task  2379	shedule   213
	Task  2381	shedule   214
	Task  2383	shedule   215
	Task  2385	shedule   216
	Task  2387	shedule   217
	Task  2389	shedule   218
	Task  2391	shedule   219
	Task  2393	shedule   220
	Task  2395	shedule   221
	Task  2397	shedule   222
	Task  2399	shedule   223
	Task  2401	shedule   224
	Task  2403	shedule   225
	Task  2405	shedule   226
	Task  2407	shedule   227
	Task  2409	shedule   228
	Task  2411	shedule   229
	Task  2413	shedule   230
	Task  2415	shedule   231
	Task  2417	shedule   232
	Task  2419	shedule   233
	Task  2421	shedule   234
	Task  2423	shedule   235
	Task  2425	shedule   236
	Task  2427	shedule   237
	Task  2429	shedule   238
	Task  2431	shedule   239
	Task  2433	shedule   240
	Task  2435	shedule   241
	Task  2437	shedule   242
	Task  2439	shedule   243
	Task  2441	shedule   244
	Task  2443	shedule   245
	Task  2445	shedule   246
	Task  2447	shedule   247
	Task  2449	shedule   248
	Task  2451	shedule   249
	Task  2453	shedule   250
	Task  2455	shedule   251
	Task  2457	shedule   252
	Task  2459	shedule   253
	Task  2461	shedule   254
	Task  2473	shedule   255
	Task  2475	shedule   256
	Task  2477	shedule   257
	Task  2479	shedule   258
	Task  2481	shedule   259
	Task  2483	shedule   260
	Task  2485	shedule   261
	Task  2487	shedule   262
	Task  2489	shedule   263
	Task  2491	shedule   264
	Task  2493	shedule   265
	Task  2495	shedule   266
	Task  2497	shedule   267
	Task  2499	shedule   268
	Task  2501	shedule   269
	Task  2503	shedule   270
	Task  2505	shedule   271
	Task  2507	shedule   272
	Task  2509	shedule   273
	Task  2511	shedule   274
	Task  2513	shedule   275
	Task  2515	shedule   276
	Task  2517	shedule   277
	Task  2519	shedule   278
	Task  2521	shedule   279
	Task  2523	shedule   280
	Task  2525	shedule   281
	Task  2527	shedule   282
	Task  2529	shedule   283
	Task  2531	shedule   284
	Task  2533	shedule   285
	Task  2535	shedule   286
	Task  2537	shedule   287
	Task  2539	shedule   288
	Task  2541	shedule   289
	Task  2543	shedule   290
	Task  2545	shedule   291
	Task  2547	shedule   292
	Task  2549	shedule   293
	Task  2551	shedule   294
	Task  2553	shedule   295
	Task  2555	shedule   296
	Task  2557	shedule   297
	Task  2559	shedule   298
	Task  2561	shedule   299
	Task  2563	shedule   300
	Task  2565	shedule   301
	Task  2567	shedule   302
	Task  2569	shedule   303
	Task  2571	shedule   304
	Task  2573	shedule   305
	Task  3876	shedule   306
	Task  3878	shedule   307
	Task  3880	shedule   308
	Task  3882	shedule   309
	Task  3884	shedule   310
	Task  3886	shedule   311
	Task  3888	shedule   312
	Task  3890	shedule   313
	Task  3892	shedule   314
	Task  3894	shedule   315
	Task  3896	shedule   316
	Task  3898	shedule   317
	Task  3900	shedule   318
	Task  3902	shedule   319
	Task  3904	shedule   320
	Task  3906	shedule   321
	Task  3908	shedule   322
	Task  3910	shedule   323
	Task  3912	shedule   324
	Task  3914	shedule   325
	Task  3916	shedule   326
	Task  3918	shedule   327
	Task  3920	shedule   328
	Task  3922	shedule   329
	Task  3924	shedule   330
	Task  3926	shedule   331
	Task  3928	shedule   332
	Task  3930	shedule   333
	Task  3932	shedule   334
	Task  3934	shedule   335
	Task  3936	shedule   336
	Task  3938	shedule   337
	Task  3940	shedule   338
	Task  3942	shedule   339
	Task  3944	shedule   340
	Task  3946	shedule   341
	Task  3948	shedule   342
	Task  3950	shedule   343
	Task  3952	shedule   344
	Task  3954	shedule   345
	Task  3956	shedule   346
	Task  3958	shedule   347
	Task  3960	shedule   348
	Task  3962	shedule   349
	Task  3964	shedule   350
	Task  3966	shedule   351
	Task  3968	shedule   352
	Task  3970	shedule   353
	Task  3972	shedule   354
	Task  3974	shedule   355
	Task  3976	shedule   356
	Task  4081	shedule   357
	Task  4083	shedule   358
	Task  4085	shedule   359
	Task  4087	shedule   360
	Task  4089	shedule   361
	Task  4091	shedule   362
	Task  4093	shedule   363
	Task  4095	shedule   364
	Task  4097	shedule   365
	Task  4099	shedule   366
	Task  4101	shedule   367
	Task  4103	shedule   368
	Task  4105	shedule   369
	Task  4107	shedule   370
	Task  4109	shedule   371
	Task  4111	shedule   372
	Task  4113	shedule   373
	Task  4115	shedule   374
	Task  4117	shedule   375
	Task  4119	shedule   376
	Task  4121	shedule   377
	Task  4123	shedule   378
	Task  4125	shedule   379
	Task  4127	shedule   380
	Task  4129	shedule   381
	Task  4131	shedule   382
	Task  4133	shedule   383
	Task  4135	shedule   384
	Task  4137	shedule   385
	Task  4139	shedule   386
	Task  4141	shedule   387
	Task  4143	shedule   388
	Task  4145	shedule   389
	Task  4147	shedule   390
	Task  4149	shedule   391
	Task  4151	shedule   392
	Task  4153	shedule   393
	Task  4155	shedule   394
	Task  4157	shedule   395
	Task  4159	shedule   396
	Task  4161	shedule   397
	Task  4163	shedule   398
	Task  4165	shedule   399
	Task  4167	shedule   400
	Task  4169	shedule   401
	Task  4171	shedule   402
	Task  4173	shedule   403
	Task  4175	shedule   404
	Task  4177	shedule   405
	Task  4179	shedule   406
	Task  4181	shedule   407
	Task  4193	shedule   408
	Task  4195	shedule   409
	Task  4197	shedule   410
	Task  4199	shedule   411
	Task  4201	shedule   412
	Task  4203	shedule   413
	Task  4205	shedule   414
	Task  4207	shedule   415
	Task  4209	shedule   416
	Task  4211	shedule   417
	Task  4213	shedule   418
	Task  4215	shedule   419
	Task  4217	shedule   420
	Task  4219	shedule   421
	Task  4221	shedule   422
	Task  4223	shedule   423
	Task  4225	shedule   424
	Task  4227	shedule   425
	Task  4229	shedule   426
	Task  4231	shedule   427
	Task  4233	shedule   428
	Task  4235	shedule   429
	Task  4237	shedule   430
	Task  4239	shedule   431
	Task  4241	shedule   432
	Task  4243	shedule   433
	Task  4245	shedule   434
	Task  4247	shedule   435
	Task  4249	shedule   436
	Task  4251	shedule   437
	Task  4253	shedule   438
	Task  4255	shedule   439
	Task  4257	shedule   440
	Task  4259	shedule   441
	Task  4261	shedule   442
	Task  4263	shedule   443
	Task  4265	shedule   444
	Task  4267	shedule   445
	Task  4269	shedule   446
	Task  4271	shedule   447
	Task  4273	shedule   448
	Task  4275	shedule   449
	Task  4277	shedule   450
	Task  4279	shedule   451
	Task  4281	shedule   452
	Task  4283	shedule   453
	Task  4285	shedule   454
	Task  4287	shedule   455
	Task  4289	shedule   456
	Task  4291	shedule   457
	Task  4293	shedule   458

**********************
Node 3 with 1 Cores
**********************
Core Index:     0	Core Id:     4	Core Name:   DDR-0	Task List Length:  1025
	Task     3	shedule     0
	Task     7	shedule     1
	Task     9	shedule     2
	Task    11	shedule     3
	Task    13	shedule     4
	Task    15	shedule     5
	Task    17	shedule     6
	Task    19	shedule     7
	Task    21	shedule     8
	Task    23	shedule     9
	Task    25	shedule    10
	Task    27	shedule    11
	Task    29	shedule    12
	Task    31	shedule    13
	Task    33	shedule    14
	Task    35	shedule    15
	Task    37	shedule    16
	Task    39	shedule    17
	Task    41	shedule    18
	Task    43	shedule    19
	Task    45	shedule    20
	Task    47	shedule    21
	Task    49	shedule    22
	Task    51	shedule    23
	Task    53	shedule    24
	Task    55	shedule    25
	Task    57	shedule    26
	Task    59	shedule    27
	Task    61	shedule    28
	Task    63	shedule    29
	Task    65	shedule    30
	Task    67	shedule    31
	Task    69	shedule    32
	Task    71	shedule    33
	Task    73	shedule    34
	Task    75	shedule    35
	Task    77	shedule    36
	Task    79	shedule    37
	Task    81	shedule    38
	Task    83	shedule    39
	Task    85	shedule    40
	Task    87	shedule    41
	Task    89	shedule    42
	Task    91	shedule    43
	Task    93	shedule    44
	Task    95	shedule    45
	Task    97	shedule    46
	Task    99	shedule    47
	Task   101	shedule    48
	Task   103	shedule    49
	Task   105	shedule    50
	Task   108	shedule    51
	Task   110	shedule    52
	Task   112	shedule    53
	Task   114	shedule    54
	Task   116	shedule    55
	Task   118	shedule    56
	Task   120	shedule    57
	Task   122	shedule    58
	Task   124	shedule    59
	Task   126	shedule    60
	Task   128	shedule    61
	Task   130	shedule    62
	Task   132	shedule    63
	Task   134	shedule    64
	Task   136	shedule    65
	Task   138	shedule    66
	Task   140	shedule    67
	Task   142	shedule    68
	Task   144	shedule    69
	Task   146	shedule    70
	Task   148	shedule    71
	Task   150	shedule    72
	Task   152	shedule    73
	Task   154	shedule    74
	Task   156	shedule    75
	Task   158	shedule    76
	Task   160	shedule    77
	Task   162	shedule    78
	Task   164	shedule    79
	Task   166	shedule    80
	Task   168	shedule    81
	Task   170	shedule    82
	Task   172	shedule    83
	Task   174	shedule    84
	Task   176	shedule    85
	Task   178	shedule    86
	Task   180	shedule    87
	Task   182	shedule    88
	Task   184	shedule    89
	Task   186	shedule    90
	Task   188	shedule    91
	Task   190	shedule    92
	Task   192	shedule    93
	Task   194	shedule    94
	Task   196	shedule    95
	Task   198	shedule    96
	Task   200	shedule    97
	Task   202	shedule    98
	Task   204	shedule    99
	Task   206	shedule   100
	Task   208	shedule   101
	Task   212	shedule   102
	Task   214	shedule   103
	Task   216	shedule   104
	Task   218	shedule   105
	Task   220	shedule   106
	Task   222	shedule   107
	Task   224	shedule   108
	Task   226	shedule   109
	Task   228	shedule   110
	Task   230	shedule   111
	Task   232	shedule   112
	Task   234	shedule   113
	Task   236	shedule   114
	Task   238	shedule   115
	Task   240	shedule   116
	Task   242	shedule   117
	Task   244	shedule   118
	Task   246	shedule   119
	Task   248	shedule   120
	Task   250	shedule   121
	Task   252	shedule   122
	Task   254	shedule   123
	Task   256	shedule   124
	Task   258	shedule   125
	Task   260	shedule   126
	Task   262	shedule   127
	Task   264	shedule   128
	Task   266	shedule   129
	Task   268	shedule   130
	Task   270	shedule   131
	Task   272	shedule   132
	Task   274	shedule   133
	Task   276	shedule   134
	Task   278	shedule   135
	Task   280	shedule   136
	Task   282	shedule   137
	Task   284	shedule   138
	Task   286	shedule   139
	Task   288	shedule   140
	Task   290	shedule   141
	Task   292	shedule   142
	Task   294	shedule   143
	Task   296	shedule   144
	Task   298	shedule   145
	Task   300	shedule   146
	Task   302	shedule   147
	Task   304	shedule   148
	Task   306	shedule   149
	Task   308	shedule   150
	Task   310	shedule   151
	Task   314	shedule   152
	Task   320	shedule   153
	Task   324	shedule   154
	Task   326	shedule   155
	Task   328	shedule   156
	Task   330	shedule   157
	Task   332	shedule   158
	Task   334	shedule   159
	Task   336	shedule   160
	Task   338	shedule   161
	Task   340	shedule   162
	Task   342	shedule   163
	Task   344	shedule   164
	Task   346	shedule   165
	Task   348	shedule   166
	Task   350	shedule   167
	Task   352	shedule   168
	Task   354	shedule   169
	Task   356	shedule   170
	Task   358	shedule   171
	Task   360	shedule   172
	Task   362	shedule   173
	Task   364	shedule   174
	Task   366	shedule   175
	Task   368	shedule   176
	Task   370	shedule   177
	Task   372	shedule   178
	Task   374	shedule   179
	Task   376	shedule   180
	Task   378	shedule   181
	Task   380	shedule   182
	Task   382	shedule   183
	Task   384	shedule   184
	Task   386	shedule   185
	Task   388	shedule   186
	Task   390	shedule   187
	Task   392	shedule   188
	Task   394	shedule   189
	Task   396	shedule   190
	Task   398	shedule   191
	Task   400	shedule   192
	Task   402	shedule   193
	Task   404	shedule   194
	Task   406	shedule   195
	Task   408	shedule   196
	Task   410	shedule   197
	Task   412	shedule   198
	Task   414	shedule   199
	Task   416	shedule   200
	Task   418	shedule   201
	Task   420	shedule   202
	Task   422	shedule   203
	Task   426	shedule   204
	Task   863	shedule   205
	Task   867	shedule   206
	Task   869	shedule   207
	Task   871	shedule   208
	Task   873	shedule   209
	Task   875	shedule   210
	Task   877	shedule   211
	Task   879	shedule   212
	Task   881	shedule   213
	Task   883	shedule   214
	Task   885	shedule   215
	Task   887	shedule   216
	Task   889	shedule   217
	Task   891	shedule   218
	Task   893	shedule   219
	Task   895	shedule   220
	Task   897	shedule   221
	Task   899	shedule   222
	Task   901	shedule   223
	Task   903	shedule   224
	Task   905	shedule   225
	Task   907	shedule   226
	Task   909	shedule   227
	Task   911	shedule   228
	Task   913	shedule   229
	Task   915	shedule   230
	Task   917	shedule   231
	Task   919	shedule   232
	Task   921	shedule   233
	Task   923	shedule   234
	Task   925	shedule   235
	Task   927	shedule   236
	Task   929	shedule   237
	Task   931	shedule   238
	Task   933	shedule   239
	Task   935	shedule   240
	Task   937	shedule   241
	Task   939	shedule   242
	Task   941	shedule   243
	Task   943	shedule   244
	Task   945	shedule   245
	Task   947	shedule   246
	Task   949	shedule   247
	Task   951	shedule   248
	Task   953	shedule   249
	Task   955	shedule   250
	Task   957	shedule   251
	Task   959	shedule   252
	Task   961	shedule   253
	Task   963	shedule   254
	Task   965	shedule   255
	Task   968	shedule   256
	Task   970	shedule   257
	Task   972	shedule   258
	Task   974	shedule   259
	Task   976	shedule   260
	Task   978	shedule   261
	Task   980	shedule   262
	Task   982	shedule   263
	Task   984	shedule   264
	Task   986	shedule   265
	Task   988	shedule   266
	Task   990	shedule   267
	Task   992	shedule   268
	Task   994	shedule   269
	Task   996	shedule   270
	Task   998	shedule   271
	Task  1000	shedule   272
	Task  1002	shedule   273
	Task  1004	shedule   274
	Task  1006	shedule   275
	Task  1008	shedule   276
	Task  1010	shedule   277
	Task  1012	shedule   278
	Task  1014	shedule   279
	Task  1016	shedule   280
	Task  1018	shedule   281
	Task  1020	shedule   282
	Task  1022	shedule   283
	Task  1024	shedule   284
	Task  1026	shedule   285
	Task  1028	shedule   286
	Task  1030	shedule   287
	Task  1032	shedule   288
	Task  1034	shedule   289
	Task  1036	shedule   290
	Task  1038	shedule   291
	Task  1040	shedule   292
	Task  1042	shedule   293
	Task  1044	shedule   294
	Task  1046	shedule   295
	Task  1048	shedule   296
	Task  1050	shedule   297
	Task  1052	shedule   298
	Task  1054	shedule   299
	Task  1056	shedule   300
	Task  1058	shedule   301
	Task  1060	shedule   302
	Task  1062	shedule   303
	Task  1064	shedule   304
	Task  1066	shedule   305
	Task  1068	shedule   306
	Task  1072	shedule   307
	Task  1074	shedule   308
	Task  1076	shedule   309
	Task  1078	shedule   310
	Task  1080	shedule   311
	Task  1082	shedule   312
	Task  1084	shedule   313
	Task  1086	shedule   314
	Task  1088	shedule   315
	Task  1090	shedule   316
	Task  1092	shedule   317
	Task  1094	shedule   318
	Task  1096	shedule   319
	Task  1098	shedule   320
	Task  1100	shedule   321
	Task  1102	shedule   322
	Task  1104	shedule   323
	Task  1106	shedule   324
	Task  1108	shedule   325
	Task  1110	shedule   326
	Task  1112	shedule   327
	Task  1114	shedule   328
	Task  1116	shedule   329
	Task  1118	shedule   330
	Task  1120	shedule   331
	Task  1122	shedule   332
	Task  1124	shedule   333
	Task  1126	shedule   334
	Task  1128	shedule   335
	Task  1130	shedule   336
	Task  1132	shedule   337
	Task  1134	shedule   338
	Task  1136	shedule   339
	Task  1138	shedule   340
	Task  1140	shedule   341
	Task  1142	shedule   342
	Task  1144	shedule   343
	Task  1146	shedule   344
	Task  1148	shedule   345
	Task  1150	shedule   346
	Task  1152	shedule   347
	Task  1154	shedule   348
	Task  1156	shedule   349
	Task  1158	shedule   350
	Task  1160	shedule   351
	Task  1162	shedule   352
	Task  1164	shedule   353
	Task  1166	shedule   354
	Task  1168	shedule   355
	Task  1170	shedule   356
	Task  1174	shedule   357
	Task  1180	shedule   358
	Task  1184	shedule   359
	Task  1186	shedule   360
	Task  1188	shedule   361
	Task  1190	shedule   362
	Task  1192	shedule   363
	Task  1194	shedule   364
	Task  1196	shedule   365
	Task  1198	shedule   366
	Task  1200	shedule   367
	Task  1202	shedule   368
	Task  1204	shedule   369
	Task  1206	shedule   370
	Task  1208	shedule   371
	Task  1210	shedule   372
	Task  1212	shedule   373
	Task  1214	shedule   374
	Task  1216	shedule   375
	Task  1218	shedule   376
	Task  1220	shedule   377
	Task  1222	shedule   378
	Task  1224	shedule   379
	Task  1226	shedule   380
	Task  1228	shedule   381
	Task  1230	shedule   382
	Task  1232	shedule   383
	Task  1234	shedule   384
	Task  1236	shedule   385
	Task  1238	shedule   386
	Task  1240	shedule   387
	Task  1242	shedule   388
	Task  1244	shedule   389
	Task  1246	shedule   390
	Task  1248	shedule   391
	Task  1250	shedule   392
	Task  1252	shedule   393
	Task  1254	shedule   394
	Task  1256	shedule   395
	Task  1258	shedule   396
	Task  1260	shedule   397
	Task  1262	shedule   398
	Task  1264	shedule   399
	Task  1266	shedule   400
	Task  1268	shedule   401
	Task  1270	shedule   402
	Task  1272	shedule   403
	Task  1274	shedule   404
	Task  1276	shedule   405
	Task  1278	shedule   406
	Task  1280	shedule   407
	Task  1282	shedule   408
	Task  1286	shedule   409
	Task  1723	shedule   410
	Task  1727	shedule   411
	Task  1729	shedule   412
	Task  1731	shedule   413
	Task  1733	shedule   414
	Task  1735	shedule   415
	Task  1737	shedule   416
	Task  1739	shedule   417
	Task  1741	shedule   418
	Task  1743	shedule   419
	Task  1745	shedule   420
	Task  1747	shedule   421
	Task  1749	shedule   422
	Task  1751	shedule   423
	Task  1753	shedule   424
	Task  1755	shedule   425
	Task  1757	shedule   426
	Task  1759	shedule   427
	Task  1761	shedule   428
	Task  1763	shedule   429
	Task  1765	shedule   430
	Task  1767	shedule   431
	Task  1769	shedule   432
	Task  1771	shedule   433
	Task  1773	shedule   434
	Task  1775	shedule   435
	Task  1777	shedule   436
	Task  1779	shedule   437
	Task  1781	shedule   438
	Task  1783	shedule   439
	Task  1785	shedule   440
	Task  1787	shedule   441
	Task  1789	shedule   442
	Task  1791	shedule   443
	Task  1793	shedule   444
	Task  1795	shedule   445
	Task  1797	shedule   446
	Task  1799	shedule   447
	Task  1801	shedule   448
	Task  1803	shedule   449
	Task  1805	shedule   450
	Task  1807	shedule   451
	Task  1809	shedule   452
	Task  1811	shedule   453
	Task  1813	shedule   454
	Task  1815	shedule   455
	Task  1817	shedule   456
	Task  1819	shedule   457
	Task  1821	shedule   458
	Task  1823	shedule   459
	Task  1825	shedule   460
	Task  1828	shedule   461
	Task  1830	shedule   462
	Task  1832	shedule   463
	Task  1834	shedule   464
	Task  1836	shedule   465
	Task  1838	shedule   466
	Task  1840	shedule   467
	Task  1842	shedule   468
	Task  1844	shedule   469
	Task  1846	shedule   470
	Task  1848	shedule   471
	Task  1850	shedule   472
	Task  1852	shedule   473
	Task  1854	shedule   474
	Task  1856	shedule   475
	Task  1858	shedule   476
	Task  1860	shedule   477
	Task  1862	shedule   478
	Task  1864	shedule   479
	Task  1866	shedule   480
	Task  1868	shedule   481
	Task  1870	shedule   482
	Task  1872	shedule   483
	Task  1874	shedule   484
	Task  1876	shedule   485
	Task  1878	shedule   486
	Task  1880	shedule   487
	Task  1882	shedule   488
	Task  1884	shedule   489
	Task  1886	shedule   490
	Task  1888	shedule   491
	Task  1890	shedule   492
	Task  1892	shedule   493
	Task  1894	shedule   494
	Task  1896	shedule   495
	Task  1898	shedule   496
	Task  1900	shedule   497
	Task  1902	shedule   498
	Task  1904	shedule   499
	Task  1906	shedule   500
	Task  1908	shedule   501
	Task  1910	shedule   502
	Task  1912	shedule   503
	Task  1914	shedule   504
	Task  1916	shedule   505
	Task  1918	shedule   506
	Task  1920	shedule   507
	Task  1922	shedule   508
	Task  1924	shedule   509
	Task  1926	shedule   510
	Task  1928	shedule   511
	Task  1932	shedule   512
	Task  1934	shedule   513
	Task  1936	shedule   514
	Task  1938	shedule   515
	Task  1940	shedule   516
	Task  1942	shedule   517
	Task  1944	shedule   518
	Task  1946	shedule   519
	Task  1948	shedule   520
	Task  1950	shedule   521
	Task  1952	shedule   522
	Task  1954	shedule   523
	Task  1956	shedule   524
	Task  1958	shedule   525
	Task  1960	shedule   526
	Task  1962	shedule   527
	Task  1964	shedule   528
	Task  1966	shedule   529
	Task  1968	shedule   530
	Task  1970	shedule   531
	Task  1972	shedule   532
	Task  1974	shedule   533
	Task  1976	shedule   534
	Task  1978	shedule   535
	Task  1980	shedule   536
	Task  1982	shedule   537
	Task  1984	shedule   538
	Task  1986	shedule   539
	Task  1988	shedule   540
	Task  1990	shedule   541
	Task  1992	shedule   542
	Task  1994	shedule   543
	Task  1996	shedule   544
	Task  1998	shedule   545
	Task  2000	shedule   546
	Task  2002	shedule   547
	Task  2004	shedule   548
	Task  2006	shedule   549
	Task  2008	shedule   550
	Task  2010	shedule   551
	Task  2012	shedule   552
	Task  2014	shedule   553
	Task  2016	shedule   554
	Task  2018	shedule   555
	Task  2020	shedule   556
	Task  2022	shedule   557
	Task  2024	shedule   558
	Task  2026	shedule   559
	Task  2028	shedule   560
	Task  2030	shedule   561
	Task  2034	shedule   562
	Task  2040	shedule   563
	Task  2044	shedule   564
	Task  2046	shedule   565
	Task  2048	shedule   566
	Task  2050	shedule   567
	Task  2052	shedule   568
	Task  2054	shedule   569
	Task  2056	shedule   570
	Task  2058	shedule   571
	Task  2060	shedule   572
	Task  2062	shedule   573
	Task  2064	shedule   574
	Task  2066	shedule   575
	Task  2068	shedule   576
	Task  2070	shedule   577
	Task  2072	shedule   578
	Task  2074	shedule   579
	Task  2076	shedule   580
	Task  2078	shedule   581
	Task  2080	shedule   582
	Task  2082	shedule   583
	Task  2084	shedule   584
	Task  2086	shedule   585
	Task  2088	shedule   586
	Task  2090	shedule   587
	Task  2092	shedule   588
	Task  2094	shedule   589
	Task  2096	shedule   590
	Task  2098	shedule   591
	Task  2100	shedule   592
	Task  2102	shedule   593
	Task  2104	shedule   594
	Task  2106	shedule   595
	Task  2108	shedule   596
	Task  2110	shedule   597
	Task  2112	shedule   598
	Task  2114	shedule   599
	Task  2116	shedule   600
	Task  2118	shedule   601
	Task  2120	shedule   602
	Task  2122	shedule   603
	Task  2124	shedule   604
	Task  2126	shedule   605
	Task  2128	shedule   606
	Task  2130	shedule   607
	Task  2132	shedule   608
	Task  2134	shedule   609
	Task  2136	shedule   610
	Task  2138	shedule   611
	Task  2140	shedule   612
	Task  2142	shedule   613
	Task  2146	shedule   614
	Task  2583	shedule   615
	Task  2587	shedule   616
	Task  2589	shedule   617
	Task  2591	shedule   618
	Task  2593	shedule   619
	Task  2595	shedule   620
	Task  2597	shedule   621
	Task  2599	shedule   622
	Task  2601	shedule   623
	Task  2603	shedule   624
	Task  2605	shedule   625
	Task  2607	shedule   626
	Task  2609	shedule   627
	Task  2611	shedule   628
	Task  2613	shedule   629
	Task  2615	shedule   630
	Task  2617	shedule   631
	Task  2619	shedule   632
	Task  2621	shedule   633
	Task  2623	shedule   634
	Task  2625	shedule   635
	Task  2627	shedule   636
	Task  2629	shedule   637
	Task  2631	shedule   638
	Task  2633	shedule   639
	Task  2635	shedule   640
	Task  2637	shedule   641
	Task  2639	shedule   642
	Task  2641	shedule   643
	Task  2643	shedule   644
	Task  2645	shedule   645
	Task  2647	shedule   646
	Task  2649	shedule   647
	Task  2651	shedule   648
	Task  2653	shedule   649
	Task  2655	shedule   650
	Task  2657	shedule   651
	Task  2659	shedule   652
	Task  2661	shedule   653
	Task  2663	shedule   654
	Task  2665	shedule   655
	Task  2667	shedule   656
	Task  2669	shedule   657
	Task  2671	shedule   658
	Task  2673	shedule   659
	Task  2675	shedule   660
	Task  2677	shedule   661
	Task  2679	shedule   662
	Task  2681	shedule   663
	Task  2683	shedule   664
	Task  2685	shedule   665
	Task  2688	shedule   666
	Task  2690	shedule   667
	Task  2692	shedule   668
	Task  2694	shedule   669
	Task  2696	shedule   670
	Task  2698	shedule   671
	Task  2700	shedule   672
	Task  2702	shedule   673
	Task  2704	shedule   674
	Task  2706	shedule   675
	Task  2708	shedule   676
	Task  2710	shedule   677
	Task  2712	shedule   678
	Task  2714	shedule   679
	Task  2716	shedule   680
	Task  2718	shedule   681
	Task  2720	shedule   682
	Task  2722	shedule   683
	Task  2724	shedule   684
	Task  2726	shedule   685
	Task  2728	shedule   686
	Task  2730	shedule   687
	Task  2732	shedule   688
	Task  2734	shedule   689
	Task  2736	shedule   690
	Task  2738	shedule   691
	Task  2740	shedule   692
	Task  2742	shedule   693
	Task  2744	shedule   694
	Task  2746	shedule   695
	Task  2748	shedule   696
	Task  2750	shedule   697
	Task  2752	shedule   698
	Task  2754	shedule   699
	Task  2756	shedule   700
	Task  2758	shedule   701
	Task  2760	shedule   702
	Task  2762	shedule   703
	Task  2764	shedule   704
	Task  2766	shedule   705
	Task  2768	shedule   706
	Task  2770	shedule   707
	Task  2772	shedule   708
	Task  2774	shedule   709
	Task  2776	shedule   710
	Task  2778	shedule   711
	Task  2780	shedule   712
	Task  2782	shedule   713
	Task  2784	shedule   714
	Task  2786	shedule   715
	Task  2788	shedule   716
	Task  2792	shedule   717
	Task  2794	shedule   718
	Task  2796	shedule   719
	Task  2798	shedule   720
	Task  2800	shedule   721
	Task  2802	shedule   722
	Task  2804	shedule   723
	Task  2806	shedule   724
	Task  2808	shedule   725
	Task  2810	shedule   726
	Task  2812	shedule   727
	Task  2814	shedule   728
	Task  2816	shedule   729
	Task  2818	shedule   730
	Task  2820	shedule   731
	Task  2822	shedule   732
	Task  2824	shedule   733
	Task  2826	shedule   734
	Task  2828	shedule   735
	Task  2830	shedule   736
	Task  2832	shedule   737
	Task  2834	shedule   738
	Task  2836	shedule   739
	Task  2838	shedule   740
	Task  2840	shedule   741
	Task  2842	shedule   742
	Task  2844	shedule   743
	Task  2846	shedule   744
	Task  2848	shedule   745
	Task  2850	shedule   746
	Task  2852	shedule   747
	Task  2854	shedule   748
	Task  2856	shedule   749
	Task  2858	shedule   750
	Task  2860	shedule   751
	Task  2862	shedule   752
	Task  2864	shedule   753
	Task  2866	shedule   754
	Task  2868	shedule   755
	Task  2870	shedule   756
	Task  2872	shedule   757
	Task  2874	shedule   758
	Task  2876	shedule   759
	Task  2878	shedule   760
	Task  2880	shedule   761
	Task  2882	shedule   762
	Task  2884	shedule   763
	Task  2886	shedule   764
	Task  2888	shedule   765
	Task  2890	shedule   766
	Task  2894	shedule   767
	Task  2900	shedule   768
	Task  2904	shedule   769
	Task  2906	shedule   770
	Task  2908	shedule   771
	Task  2910	shedule   772
	Task  2912	shedule   773
	Task  2914	shedule   774
	Task  2916	shedule   775
	Task  2918	shedule   776
	Task  2920	shedule   777
	Task  2922	shedule   778
	Task  2924	shedule   779
	Task  2926	shedule   780
	Task  2928	shedule   781
	Task  2930	shedule   782
	Task  2932	shedule   783
	Task  2934	shedule   784
	Task  2936	shedule   785
	Task  2938	shedule   786
	Task  2940	shedule   787
	Task  2942	shedule   788
	Task  2944	shedule   789
	Task  2946	shedule   790
	Task  2948	shedule   791
	Task  2950	shedule   792
	Task  2952	shedule   793
	Task  2954	shedule   794
	Task  2956	shedule   795
	Task  2958	shedule   796
	Task  2960	shedule   797
	Task  2962	shedule   798
	Task  2964	shedule   799
	Task  2966	shedule   800
	Task  2968	shedule   801
	Task  2970	shedule   802
	Task  2972	shedule   803
	Task  2974	shedule   804
	Task  2976	shedule   805
	Task  2978	shedule   806
	Task  2980	shedule   807
	Task  2982	shedule   808
	Task  2984	shedule   809
	Task  2986	shedule   810
	Task  2988	shedule   811
	Task  2990	shedule   812
	Task  2992	shedule   813
	Task  2994	shedule   814
	Task  2996	shedule   815
	Task  2998	shedule   816
	Task  3000	shedule   817
	Task  3002	shedule   818
	Task  3006	shedule   819
	Task  3443	shedule   820
	Task  3447	shedule   821
	Task  3449	shedule   822
	Task  3451	shedule   823
	Task  3453	shedule   824
	Task  3455	shedule   825
	Task  3457	shedule   826
	Task  3459	shedule   827
	Task  3461	shedule   828
	Task  3463	shedule   829
	Task  3465	shedule   830
	Task  3467	shedule   831
	Task  3469	shedule   832
	Task  3471	shedule   833
	Task  3473	shedule   834
	Task  3475	shedule   835
	Task  3477	shedule   836
	Task  3479	shedule   837
	Task  3481	shedule   838
	Task  3483	shedule   839
	Task  3485	shedule   840
	Task  3487	shedule   841
	Task  3489	shedule   842
	Task  3491	shedule   843
	Task  3493	shedule   844
	Task  3495	shedule   845
	Task  3497	shedule   846
	Task  3499	shedule   847
	Task  3501	shedule   848
	Task  3503	shedule   849
	Task  3505	shedule   850
	Task  3507	shedule   851
	Task  3509	shedule   852
	Task  3511	shedule   853
	Task  3513	shedule   854
	Task  3515	shedule   855
	Task  3517	shedule   856
	Task  3519	shedule   857
	Task  3521	shedule   858
	Task  3523	shedule   859
	Task  3525	shedule   860
	Task  3527	shedule   861
	Task  3529	shedule   862
	Task  3531	shedule   863
	Task  3533	shedule   864
	Task  3535	shedule   865
	Task  3537	shedule   866
	Task  3539	shedule   867
	Task  3541	shedule   868
	Task  3543	shedule   869
	Task  3545	shedule   870
	Task  3548	shedule   871
	Task  3550	shedule   872
	Task  3552	shedule   873
	Task  3554	shedule   874
	Task  3556	shedule   875
	Task  3558	shedule   876
	Task  3560	shedule   877
	Task  3562	shedule   878
	Task  3564	shedule   879
	Task  3566	shedule   880
	Task  3568	shedule   881
	Task  3570	shedule   882
	Task  3572	shedule   883
	Task  3574	shedule   884
	Task  3576	shedule   885
	Task  3578	shedule   886
	Task  3580	shedule   887
	Task  3582	shedule   888
	Task  3584	shedule   889
	Task  3586	shedule   890
	Task  3588	shedule   891
	Task  3590	shedule   892
	Task  3592	shedule   893
	Task  3594	shedule   894
	Task  3596	shedule   895
	Task  3598	shedule   896
	Task  3600	shedule   897
	Task  3602	shedule   898
	Task  3604	shedule   899
	Task  3606	shedule   900
	Task  3608	shedule   901
	Task  3610	shedule   902
	Task  3612	shedule   903
	Task  3614	shedule   904
	Task  3616	shedule   905
	Task  3618	shedule   906
	Task  3620	shedule   907
	Task  3622	shedule   908
	Task  3624	shedule   909
	Task  3626	shedule   910
	Task  3628	shedule   911
	Task  3630	shedule   912
	Task  3632	shedule   913
	Task  3634	shedule   914
	Task  3636	shedule   915
	Task  3638	shedule   916
	Task  3640	shedule   917
	Task  3642	shedule   918
	Task  3644	shedule   919
	Task  3646	shedule   920
	Task  3648	shedule   921
	Task  3652	shedule   922
	Task  3654	shedule   923
	Task  3656	shedule   924
	Task  3658	shedule   925
	Task  3660	shedule   926
	Task  3662	shedule   927
	Task  3664	shedule   928
	Task  3666	shedule   929
	Task  3668	shedule   930
	Task  3670	shedule   931
	Task  3672	shedule   932
	Task  3674	shedule   933
	Task  3676	shedule   934
	Task  3678	shedule   935
	Task  3680	shedule   936
	Task  3682	shedule   937
	Task  3684	shedule   938
	Task  3686	shedule   939
	Task  3688	shedule   940
	Task  3690	shedule   941
	Task  3692	shedule   942
	Task  3694	shedule   943
	Task  3696	shedule   944
	Task  3698	shedule   945
	Task  3700	shedule   946
	Task  3702	shedule   947
	Task  3704	shedule   948
	Task  3706	shedule   949
	Task  3708	shedule   950
	Task  3710	shedule   951
	Task  3712	shedule   952
	Task  3714	shedule   953
	Task  3716	shedule   954
	Task  3718	shedule   955
	Task  3720	shedule   956
	Task  3722	shedule   957
	Task  3724	shedule   958
	Task  3726	shedule   959
	Task  3728	shedule   960
	Task  3730	shedule   961
	Task  3732	shedule   962
	Task  3734	shedule   963
	Task  3736	shedule   964
	Task  3738	shedule   965
	Task  3740	shedule   966
	Task  3742	shedule   967
	Task  3744	shedule   968
	Task  3746	shedule   969
	Task  3748	shedule   970
	Task  3750	shedule   971
	Task  3754	shedule   972
	Task  3760	shedule   973
	Task  3764	shedule   974
	Task  3766	shedule   975
	Task  3768	shedule   976
	Task  3770	shedule   977
	Task  3772	shedule   978
	Task  3774	shedule   979
	Task  3776	shedule   980
	Task  3778	shedule   981
	Task  3780	shedule   982
	Task  3782	shedule   983
	Task  3784	shedule   984
	Task  3786	shedule   985
	Task  3788	shedule   986
	Task  3790	shedule   987
	Task  3792	shedule   988
	Task  3794	shedule   989
	Task  3796	shedule   990
	Task  3798	shedule   991
	Task  3800	shedule   992
	Task  3802	shedule   993
	Task  3804	shedule   994
	Task  3806	shedule   995
	Task  3808	shedule   996
	Task  3810	shedule   997
	Task  3812	shedule   998
	Task  3814	shedule   999
	Task  3816	shedule  1000
	Task  3818	shedule  1001
	Task  3820	shedule  1002
	Task  3822	shedule  1003
	Task  3824	shedule  1004
	Task  3826	shedule  1005
	Task  3828	shedule  1006
	Task  3830	shedule  1007
	Task  3832	shedule  1008
	Task  3834	shedule  1009
	Task  3836	shedule  1010
	Task  3838	shedule  1011
	Task  3840	shedule  1012
	Task  3842	shedule  1013
	Task  3844	shedule  1014
	Task  3846	shedule  1015
	Task  3848	shedule  1016
	Task  3850	shedule  1017
	Task  3852	shedule  1018
	Task  3854	shedule  1019
	Task  3856	shedule  1020
	Task  3858	shedule  1021
	Task  3860	shedule  1022
	Task  3862	shedule  1023
	Task  3866	shedule  1024

**********************
Node 4 with 3 Cores
**********************
Core Index:     0	Core Id:     5	Core Name:    PE-3	Task List Length:   306
	Task   866	shedule     0
	Task   868	shedule     1
	Task   870	shedule     2
	Task   872	shedule     3
	Task   874	shedule     4
	Task   876	shedule     5
	Task   878	shedule     6
	Task   880	shedule     7
	Task   882	shedule     8
	Task   884	shedule     9
	Task   886	shedule    10
	Task   888	shedule    11
	Task   890	shedule    12
	Task   892	shedule    13
	Task   894	shedule    14
	Task   896	shedule    15
	Task   898	shedule    16
	Task   900	shedule    17
	Task   902	shedule    18
	Task   904	shedule    19
	Task   906	shedule    20
	Task   908	shedule    21
	Task   910	shedule    22
	Task   912	shedule    23
	Task   914	shedule    24
	Task   916	shedule    25
	Task   918	shedule    26
	Task   920	shedule    27
	Task   922	shedule    28
	Task   924	shedule    29
	Task   926	shedule    30
	Task   928	shedule    31
	Task   930	shedule    32
	Task   932	shedule    33
	Task   934	shedule    34
	Task   936	shedule    35
	Task   938	shedule    36
	Task   940	shedule    37
	Task   942	shedule    38
	Task   944	shedule    39
	Task   946	shedule    40
	Task   948	shedule    41
	Task   950	shedule    42
	Task   952	shedule    43
	Task   954	shedule    44
	Task   956	shedule    45
	Task   958	shedule    46
	Task   960	shedule    47
	Task   962	shedule    48
	Task   964	shedule    49
	Task   966	shedule    50
	Task  1071	shedule    51
	Task  1073	shedule    52
	Task  1075	shedule    53
	Task  1077	shedule    54
	Task  1079	shedule    55
	Task  1081	shedule    56
	Task  1083	shedule    57
	Task  1085	shedule    58
	Task  1087	shedule    59
	Task  1089	shedule    60
	Task  1091	shedule    61
	Task  1093	shedule    62
	Task  1095	shedule    63
	Task  1097	shedule    64
	Task  1099	shedule    65
	Task  1101	shedule    66
	Task  1103	shedule    67
	Task  1105	shedule    68
	Task  1107	shedule    69
	Task  1109	shedule    70
	Task  1111	shedule    71
	Task  1113	shedule    72
	Task  1115	shedule    73
	Task  1117	shedule    74
	Task  1119	shedule    75
	Task  1121	shedule    76
	Task  1123	shedule    77
	Task  1125	shedule    78
	Task  1127	shedule    79
	Task  1129	shedule    80
	Task  1131	shedule    81
	Task  1133	shedule    82
	Task  1135	shedule    83
	Task  1137	shedule    84
	Task  1139	shedule    85
	Task  1141	shedule    86
	Task  1143	shedule    87
	Task  1145	shedule    88
	Task  1147	shedule    89
	Task  1149	shedule    90
	Task  1151	shedule    91
	Task  1153	shedule    92
	Task  1155	shedule    93
	Task  1157	shedule    94
	Task  1159	shedule    95
	Task  1161	shedule    96
	Task  1163	shedule    97
	Task  1165	shedule    98
	Task  1167	shedule    99
	Task  1169	shedule   100
	Task  1171	shedule   101
	Task  1183	shedule   102
	Task  1185	shedule   103
	Task  1187	shedule   104
	Task  1189	shedule   105
	Task  1191	shedule   106
	Task  1193	shedule   107
	Task  1195	shedule   108
	Task  1197	shedule   109
	Task  1199	shedule   110
	Task  1201	shedule   111
	Task  1203	shedule   112
	Task  1205	shedule   113
	Task  1207	shedule   114
	Task  1209	shedule   115
	Task  1211	shedule   116
	Task  1213	shedule   117
	Task  1215	shedule   118
	Task  1217	shedule   119
	Task  1219	shedule   120
	Task  1221	shedule   121
	Task  1223	shedule   122
	Task  1225	shedule   123
	Task  1227	shedule   124
	Task  1229	shedule   125
	Task  1231	shedule   126
	Task  1233	shedule   127
	Task  1235	shedule   128
	Task  1237	shedule   129
	Task  1239	shedule   130
	Task  1241	shedule   131
	Task  1243	shedule   132
	Task  1245	shedule   133
	Task  1247	shedule   134
	Task  1249	shedule   135
	Task  1251	shedule   136
	Task  1253	shedule   137
	Task  1255	shedule   138
	Task  1257	shedule   139
	Task  1259	shedule   140
	Task  1261	shedule   141
	Task  1263	shedule   142
	Task  1265	shedule   143
	Task  1267	shedule   144
	Task  1269	shedule   145
	Task  1271	shedule   146
	Task  1273	shedule   147
	Task  1275	shedule   148
	Task  1277	shedule   149
	Task  1279	shedule   150
	Task  1281	shedule   151
	Task  1283	shedule   152
	Task  2586	shedule   153
	Task  2588	shedule   154
	Task  2590	shedule   155
	Task  2592	shedule   156
	Task  2594	shedule   157
	Task  2596	shedule   158
	Task  2598	shedule   159
	Task  2600	shedule   160
	Task  2602	shedule   161
	Task  2604	shedule   162
	Task  2606	shedule   163
	Task  2608	shedule   164
	Task  2610	shedule   165
	Task  2612	shedule   166
	Task  2614	shedule   167
	Task  2616	shedule   168
	Task  2618	shedule   169
	Task  2620	shedule   170
	Task  2622	shedule   171
	Task  2624	shedule   172
	Task  2626	shedule   173
	Task  2628	shedule   174
	Task  2630	shedule   175
	Task  2632	shedule   176
	Task  2634	shedule   177
	Task  2636	shedule   178
	Task  2638	shedule   179
	Task  2640	shedule   180
	Task  2642	shedule   181
	Task  2644	shedule   182
	Task  2646	shedule   183
	Task  2648	shedule   184
	Task  2650	shedule   185
	Task  2652	shedule   186
	Task  2654	shedule   187
	Task  2656	shedule   188
	Task  2658	shedule   189
	Task  2660	shedule   190
	Task  2662	shedule   191
	Task  2664	shedule   192
	Task  2666	shedule   193
	Task  2668	shedule   194
	Task  2670	shedule   195
	Task  2672	shedule   196
	Task  2674	shedule   197
	Task  2676	shedule   198
	Task  2678	shedule   199
	Task  2680	shedule   200
	Task  2682	shedule   201
	Task  2684	shedule   202
	Task  2686	shedule   203
	Task  2791	shedule   204
	Task  2793	shedule   205
	Task  2795	shedule   206
	Task  2797	shedule   207
	Task  2799	shedule   208
	Task  2801	shedule   209
	Task  2803	shedule   210
	Task  2805	shedule   211
	Task  2807	shedule   212
	Task  2809	shedule   213
	Task  2811	shedule   214
	Task  2813	shedule   215
	Task  2815	shedule   216
	Task  2817	shedule   217
	Task  2819	shedule   218
	Task  2821	shedule   219
	Task  2823	shedule   220
	Task  2825	shedule   221
	Task  2827	shedule   222
	Task  2829	shedule   223
	Task  2831	shedule   224
	Task  2833	shedule   225
	Task  2835	shedule   226
	Task  2837	shedule   227
	Task  2839	shedule   228
	Task  2841	shedule   229
	Task  2843	shedule   230
	Task  2845	shedule   231
	Task  2847	shedule   232
	Task  2849	shedule   233
	Task  2851	shedule   234
	Task  2853	shedule   235
	Task  2855	shedule   236
	Task  2857	shedule   237
	Task  2859	shedule   238
	Task  2861	shedule   239
	Task  2863	shedule   240
	Task  2865	shedule   241
	Task  2867	shedule   242
	Task  2869	shedule   243
	Task  2871	shedule   244
	Task  2873	shedule   245
	Task  2875	shedule   246
	Task  2877	shedule   247
	Task  2879	shedule   248
	Task  2881	shedule   249
	Task  2883	shedule   250
	Task  2885	shedule   251
	Task  2887	shedule   252
	Task  2889	shedule   253
	Task  2891	shedule   254
	Task  2903	shedule   255
	Task  2905	shedule   256
	Task  2907	shedule   257
	Task  2909	shedule   258
	Task  2911	shedule   259
	Task  2913	shedule   260
	Task  2915	shedule   261
	Task  2917	shedule   262
	Task  2919	shedule   263
	Task  2921	shedule   264
	Task  2923	shedule   265
	Task  2925	shedule   266
	Task  2927	shedule   267
	Task  2929	shedule   268
	Task  2931	shedule   269
	Task  2933	shedule   270
	Task  2935	shedule   271
	Task  2937	shedule   272
	Task  2939	shedule   273
	Task  2941	shedule   274
	Task  2943	shedule   275
	Task  2945	shedule   276
	Task  2947	shedule   277
	Task  2949	shedule   278
	Task  2951	shedule   279
	Task  2953	shedule   280
	Task  2955	shedule   281
	Task  2957	shedule   282
	Task  2959	shedule   283
	Task  2961	shedule   284
	Task  2963	shedule   285
	Task  2965	shedule   286
	Task  2967	shedule   287
	Task  2969	shedule   288
	Task  2971	shedule   289
	Task  2973	shedule   290
	Task  2975	shedule   291
	Task  2977	shedule   292
	Task  2979	shedule   293
	Task  2981	shedule   294
	Task  2983	shedule   295
	Task  2985	shedule   296
	Task  2987	shedule   297
	Task  2989	shedule   298
	Task  2991	shedule   299
	Task  2993	shedule   300
	Task  2995	shedule   301
	Task  2997	shedule   302
	Task  2999	shedule   303
	Task  3001	shedule   304
	Task  3003	shedule   305
Core Index:     1	Core Id:     6	Core Name:    PE-4	Task List Length:   306
	Task  1296	shedule     0
	Task  1298	shedule     1
	Task  1300	shedule     2
	Task  1302	shedule     3
	Task  1304	shedule     4
	Task  1306	shedule     5
	Task  1308	shedule     6
	Task  1310	shedule     7
	Task  1312	shedule     8
	Task  1314	shedule     9
	Task  1316	shedule    10
	Task  1318	shedule    11
	Task  1320	shedule    12
	Task  1322	shedule    13
	Task  1324	shedule    14
	Task  1326	shedule    15
	Task  1328	shedule    16
	Task  1330	shedule    17
	Task  1332	shedule    18
	Task  1334	shedule    19
	Task  1336	shedule    20
	Task  1338	shedule    21
	Task  1340	shedule    22
	Task  1342	shedule    23
	Task  1344	shedule    24
	Task  1346	shedule    25
	Task  1348	shedule    26
	Task  1350	shedule    27
	Task  1352	shedule    28
	Task  1354	shedule    29
	Task  1356	shedule    30
	Task  1358	shedule    31
	Task  1360	shedule    32
	Task  1362	shedule    33
	Task  1364	shedule    34
	Task  1366	shedule    35
	Task  1368	shedule    36
	Task  1370	shedule    37
	Task  1372	shedule    38
	Task  1374	shedule    39
	Task  1376	shedule    40
	Task  1378	shedule    41
	Task  1380	shedule    42
	Task  1382	shedule    43
	Task  1384	shedule    44
	Task  1386	shedule    45
	Task  1388	shedule    46
	Task  1390	shedule    47
	Task  1392	shedule    48
	Task  1394	shedule    49
	Task  1396	shedule    50
	Task  1501	shedule    51
	Task  1503	shedule    52
	Task  1505	shedule    53
	Task  1507	shedule    54
	Task  1509	shedule    55
	Task  1511	shedule    56
	Task  1513	shedule    57
	Task  1515	shedule    58
	Task  1517	shedule    59
	Task  1519	shedule    60
	Task  1521	shedule    61
	Task  1523	shedule    62
	Task  1525	shedule    63
	Task  1527	shedule    64
	Task  1529	shedule    65
	Task  1531	shedule    66
	Task  1533	shedule    67
	Task  1535	shedule    68
	Task  1537	shedule    69
	Task  1539	shedule    70
	Task  1541	shedule    71
	Task  1543	shedule    72
	Task  1545	shedule    73
	Task  1547	shedule    74
	Task  1549	shedule    75
	Task  1551	shedule    76
	Task  1553	shedule    77
	Task  1555	shedule    78
	Task  1557	shedule    79
	Task  1559	shedule    80
	Task  1561	shedule    81
	Task  1563	shedule    82
	Task  1565	shedule    83
	Task  1567	shedule    84
	Task  1569	shedule    85
	Task  1571	shedule    86
	Task  1573	shedule    87
	Task  1575	shedule    88
	Task  1577	shedule    89
	Task  1579	shedule    90
	Task  1581	shedule    91
	Task  1583	shedule    92
	Task  1585	shedule    93
	Task  1587	shedule    94
	Task  1589	shedule    95
	Task  1591	shedule    96
	Task  1593	shedule    97
	Task  1595	shedule    98
	Task  1597	shedule    99
	Task  1599	shedule   100
	Task  1601	shedule   101
	Task  1613	shedule   102
	Task  1615	shedule   103
	Task  1617	shedule   104
	Task  1619	shedule   105
	Task  1621	shedule   106
	Task  1623	shedule   107
	Task  1625	shedule   108
	Task  1627	shedule   109
	Task  1629	shedule   110
	Task  1631	shedule   111
	Task  1633	shedule   112
	Task  1635	shedule   113
	Task  1637	shedule   114
	Task  1639	shedule   115
	Task  1641	shedule   116
	Task  1643	shedule   117
	Task  1645	shedule   118
	Task  1647	shedule   119
	Task  1649	shedule   120
	Task  1651	shedule   121
	Task  1653	shedule   122
	Task  1655	shedule   123
	Task  1657	shedule   124
	Task  1659	shedule   125
	Task  1661	shedule   126
	Task  1663	shedule   127
	Task  1665	shedule   128
	Task  1667	shedule   129
	Task  1669	shedule   130
	Task  1671	shedule   131
	Task  1673	shedule   132
	Task  1675	shedule   133
	Task  1677	shedule   134
	Task  1679	shedule   135
	Task  1681	shedule   136
	Task  1683	shedule   137
	Task  1685	shedule   138
	Task  1687	shedule   139
	Task  1689	shedule   140
	Task  1691	shedule   141
	Task  1693	shedule   142
	Task  1695	shedule   143
	Task  1697	shedule   144
	Task  1699	shedule   145
	Task  1701	shedule   146
	Task  1703	shedule   147
	Task  1705	shedule   148
	Task  1707	shedule   149
	Task  1709	shedule   150
	Task  1711	shedule   151
	Task  1713	shedule   152
	Task  3016	shedule   153
	Task  3018	shedule   154
	Task  3020	shedule   155
	Task  3022	shedule   156
	Task  3024	shedule   157
	Task  3026	shedule   158
	Task  3028	shedule   159
	Task  3030	shedule   160
	Task  3032	shedule   161
	Task  3034	shedule   162
	Task  3036	shedule   163
	Task  3038	shedule   164
	Task  3040	shedule   165
	Task  3042	shedule   166
	Task  3044	shedule   167
	Task  3046	shedule   168
	Task  3048	shedule   169
	Task  3050	shedule   170
	Task  3052	shedule   171
	Task  3054	shedule   172
	Task  3056	shedule   173
	Task  3058	shedule   174
	Task  3060	shedule   175
	Task  3062	shedule   176
	Task  3064	shedule   177
	Task  3066	shedule   178
	Task  3068	shedule   179
	Task  3070	shedule   180
	Task  3072	shedule   181
	Task  3074	shedule   182
	Task  3076	shedule   183
	Task  3078	shedule   184
	Task  3080	shedule   185
	Task  3082	shedule   186
	Task  3084	shedule   187
	Task  3086	shedule   188
	Task  3088	shedule   189
	Task  3090	shedule   190
	Task  3092	shedule   191
	Task  3094	shedule   192
	Task  3096	shedule   193
	Task  3098	shedule   194
	Task  3100	shedule   195
	Task  3102	shedule   196
	Task  3104	shedule   197
	Task  3106	shedule   198
	Task  3108	shedule   199
	Task  3110	shedule   200
	Task  3112	shedule   201
	Task  3114	shedule   202
	Task  3116	shedule   203
	Task  3221	shedule   204
	Task  3223	shedule   205
	Task  3225	shedule   206
	Task  3227	shedule   207
	Task  3229	shedule   208
	Task  3231	shedule   209
	Task  3233	shedule   210
	Task  3235	shedule   211
	Task  3237	shedule   212
	Task  3239	shedule   213
	Task  3241	shedule   214
	Task  3243	shedule   215
	Task  3245	shedule   216
	Task  3247	shedule   217
	Task  3249	shedule   218
	Task  3251	shedule   219
	Task  3253	shedule   220
	Task  3255	shedule   221
	Task  3257	shedule   222
	Task  3259	shedule   223
	Task  3261	shedule   224
	Task  3263	shedule   225
	Task  3265	shedule   226
	Task  3267	shedule   227
	Task  3269	shedule   228
	Task  3271	shedule   229
	Task  3273	shedule   230
	Task  3275	shedule   231
	Task  3277	shedule   232
	Task  3279	shedule   233
	Task  3281	shedule   234
	Task  3283	shedule   235
	Task  3285	shedule   236
	Task  3287	shedule   237
	Task  3289	shedule   238
	Task  3291	shedule   239
	Task  3293	shedule   240
	Task  3295	shedule   241
	Task  3297	shedule   242
	Task  3299	shedule   243
	Task  3301	shedule   244
	Task  3303	shedule   245
	Task  3305	shedule   246
	Task  3307	shedule   247
	Task  3309	shedule   248
	Task  3311	shedule   249
	Task  3313	shedule   250
	Task  3315	shedule   251
	Task  3317	shedule   252
	Task  3319	shedule   253
	Task  3321	shedule   254
	Task  3333	shedule   255
	Task  3335	shedule   256
	Task  3337	shedule   257
	Task  3339	shedule   258
	Task  3341	shedule   259
	Task  3343	shedule   260
	Task  3345	shedule   261
	Task  3347	shedule   262
	Task  3349	shedule   263
	Task  3351	shedule   264
	Task  3353	shedule   265
	Task  3355	shedule   266
	Task  3357	shedule   267
	Task  3359	shedule   268
	Task  3361	shedule   269
	Task  3363	shedule   270
	Task  3365	shedule   271
	Task  3367	shedule   272
	Task  3369	shedule   273
	Task  3371	shedule   274
	Task  3373	shedule   275
	Task  3375	shedule   276
	Task  3377	shedule   277
	Task  3379	shedule   278
	Task  3381	shedule   279
	Task  3383	shedule   280
	Task  3385	shedule   281
	Task  3387	shedule   282
	Task  3389	shedule   283
	Task  3391	shedule   284
	Task  3393	shedule   285
	Task  3395	shedule   286
	Task  3397	shedule   287
	Task  3399	shedule   288
	Task  3401	shedule   289
	Task  3403	shedule   290
	Task  3405	shedule   291
	Task  3407	shedule   292
	Task  3409	shedule   293
	Task  3411	shedule   294
	Task  3413	shedule   295
	Task  3415	shedule   296
	Task  3417	shedule   297
	Task  3419	shedule   298
	Task  3421	shedule   299
	Task  3423	shedule   300
	Task  3425	shedule   301
	Task  3427	shedule   302
	Task  3429	shedule   303
	Task  3431	shedule   304
	Task  3433	shedule   305
Core Index:     2	Core Id:     7	Core Name:    PE-5	Task List Length:     0

**********************
Node 5 with 1 Cores
**********************
Core Index:     0	Core Id:     8	Core Name:   PE-13	Task List Length:     0

**********************
Node 6 with 1 Cores
**********************
Core Index:     0	Core Id:     9	Core Name:  Core-1	Task List Length:   153
	Task   539	shedule     0
	Task   541	shedule     1
	Task   543	shedule     2
	Task   545	shedule     3
	Task   547	shedule     4
	Task   549	shedule     5
	Task   551	shedule     6
	Task   553	shedule     7
	Task   555	shedule     8
	Task   557	shedule     9
	Task   559	shedule    10
	Task   561	shedule    11
	Task   563	shedule    12
	Task   565	shedule    13
	Task   567	shedule    14
	Task   569	shedule    15
	Task   571	shedule    16
	Task   573	shedule    17
	Task   575	shedule    18
	Task   577	shedule    19
	Task   579	shedule    20
	Task   581	shedule    21
	Task   583	shedule    22
	Task   585	shedule    23
	Task   587	shedule    24
	Task   589	shedule    25
	Task   591	shedule    26
	Task   593	shedule    27
	Task   595	shedule    28
	Task   597	shedule    29
	Task   599	shedule    30
	Task   601	shedule    31
	Task   603	shedule    32
	Task   605	shedule    33
	Task   607	shedule    34
	Task   609	shedule    35
	Task   611	shedule    36
	Task   613	shedule    37
	Task   615	shedule    38
	Task   617	shedule    39
	Task   619	shedule    40
	Task   621	shedule    41
	Task   623	shedule    42
	Task   625	shedule    43
	Task   627	shedule    44
	Task   629	shedule    45
	Task   631	shedule    46
	Task   633	shedule    47
	Task   635	shedule    48
	Task   637	shedule    49
	Task   639	shedule    50
	Task  2259	shedule    51
	Task  2261	shedule    52
	Task  2263	shedule    53
	Task  2265	shedule    54
	Task  2267	shedule    55
	Task  2269	shedule    56
	Task  2271	shedule    57
	Task  2273	shedule    58
	Task  2275	shedule    59
	Task  2277	shedule    60
[...]
	Task  1692	shedule   398
	Task  1694	shedule   399
	Task  1696	shedule   400
	Task  1698	shedule   401
	Task  1700	shedule   402
	Task  1702	shedule   403
	Task  1704	shedule   404
	Task  1706	shedule   405
	Task  1708	shedule   406
	Task  1710	shedule   407
	Task  1712	shedule   408
	Task  1716	shedule   409
	Task  2153	shedule   410
	Task  2157	shedule   411
	Task  2159	shedule   412
	Task  2161	shedule   413
	Task  2163	shedule   414
	Task  2165	shedule   415
	Task  2167	shedule   416
	Task  2169	shedule   417
	Task  2171	shedule   418
	Task  2173	shedule   419
	Task  2175	shedule   420
	Task  2177	shedule   421
	Task  2179	shedule   422
	Task  2181	shedule   423
	Task  2183	shedule   424
	Task  2185	shedule   425
	Task  2187	shedule   426
	Task  2189	shedule   427
	Task  2191	shedule   428
	Task  2193	shedule   429
	Task  2195	shedule   430
	Task  2197	shedule   431
	Task  2199	shedule   432
	Task  2201	shedule   433
	Task  2203	shedule   434
	Task  2205	shedule   435
	Task  2207	shedule   436
	Task  2209	shedule   437
	Task  2211	shedule   438
	Task  2213	shedule   439
	Task  2215	shedule   440
	Task  2217	shedule   441
	Task  2219	shedule   442
	Task  2221	shedule   443
	Task  2223	shedule   444
	Task  2225	shedule   445
	Task  2227	shedule   446
	Task  2229	shedule   447
	Task  2231	shedule   448
	Task  2233	shedule   449
	Task  2235	shedule   450
	Task  2237	shedule   451
	Task  2239	shedule   452
	Task  2241	shedule   453
	Task  2243	shedule   454
	Task  2245	shedule   455
	Task  2247	shedule   456
	Task  2249	shedule   457
	Task  2251	shedule   458
	Task  2253	shedule   459
	Task  2255	shedule   460
	Task  2258	shedule   461
	Task  2260	shedule   462
	Task  2262	shedule   463
	Task  2264	shedule   464
	Task  2266	shedule   465
	Task  2268	shedule   466
	Task  2270	shedule   467
	Task  2272	shedule   468
	Task  2274	shedule   469
	Task  2276	shedule   470
	Task  2278	shedule   471
	Task  2280	shedule   472
	Task  2282	shedule   473
	Task  2284	shedule   474
	Task  2286	shedule   475
	Task  2288	shedule   476
	Task  2290	shedule   477
	Task  2292	shedule   478
	Task  2294	shedule   479
	Task  2296	shedule   480
	Task  2298	shedule   481
	Task  2300	shedule   482
	Task  2302	shedule   483
	Task  2304	shedule   484
	Task  2306	shedule   485
	Task  2308	shedule   486
	Task  2310	shedule   487
	Task  2312	shedule   488
	Task  2314	shedule   489
	Task  2316	shedule   490
	Task  2318	shedule   491
	Task  2320	shedule   492
	Task  2322	shedule   493
	Task  2324	shedule   494
	Task  2326	shedule   495
	Task  2328	shedule   496
	Task  2330	shedule   497
	Task  2332	shedule   498
	Task  2334	shedule   499
	Task  2336	shedule   500
	Task  2338	shedule   501
	Task  2340	shedule   502
	Task  2342	shedule   503
	Task  2344	shedule   504
	Task  2346	shedule   505
	Task  2348	shedule   506
	Task  2350	shedule   507
	Task  2352	shedule   508
	Task  2354	shedule   509
	Task  2356	shedule   510
	Task  2358	shedule   511
	Task  2362	shedule   512
	Task  2364	shedule   513
	Task  2366	shedule   514
	Task  2368	shedule   515
	Task  2370	shedule   516
	Task  2372	shedule   517
	Task  2374	shedule   518
	Task  2376	shedule   519
	Task  2378	shedule   520
	Task  2380	shedule   521
	Task  2382	shedule   522
	Task  2384	shedule   523
	Task  2386	shedule   524
	Task  2388	shedule   525
	Task  2390	shedule   526
	Task  2392	shedule   527
	Task  2394	shedule   528
	Task  2396	shedule   529
	Task  2398	shedule   530
	Task  2400	shedule   531
	Task  2402	shedule   532
	Task  2404	shedule   533
	Task  2406	shedule   534
	Task  2408	shedule   535
	Task  2410	shedule   536
	Task  2412	shedule   537
	Task  2414	shedule   538
	Task  2416	shedule   539
	Task  2418	shedule   540
	Task  2420	shedule   541
	Task  2422	shedule   542
	Task  2424	shedule   543
	Task  2426	shedule   544
	Task  2428	shedule   545
	Task  2430	shedule   546
	Task  2432	shedule   547
	Task  2434	shedule   548
	Task  2436	shedule   549
	Task  2438	shedule   550
	Task  2440	shedule   551
	Task  2442	shedule   552
	Task  2444	shedule   553
	Task  2446	shedule   554
	Task  2448	shedule   555
	Task  2450	shedule   556
	Task  2452	shedule   557
	Task  2454	shedule   558
	Task  2456	shedule   559
	Task  2458	shedule   560
	Task  2460	shedule   561
	Task  2464	shedule   562
	Task  2470	shedule   563
	Task  2474	shedule   564
	Task  2476	shedule   565
	Task  2478	shedule   566
	Task  2480	shedule   567
	Task  2482	shedule   568
	Task  2484	shedule   569
	Task  2486	shedule   570
	Task  2488	shedule   571
	Task  2490	shedule   572
	Task  2492	shedule   573
	Task  2494	shedule   574
	Task  2496	shedule   575
	Task  2498	shedule   576
	Task  2500	shedule   577
	Task  2502	shedule   578
	Task  2504	shedule   579
	Task  2506	shedule   580
	Task  2508	shedule   581
	Task  2510	shedule   582
	Task  2512	shedule   583
	Task  2514	shedule   584
	Task  2516	shedule   585
	Task  2518	shedule   586
	Task  2520	shedule   587
	Task  2522	shedule   588
	Task  2524	shedule   589
	Task  2526	shedule   590
	Task  2528	shedule   591
	Task  2530	shedule   592
	Task  2532	shedule   593
	Task  2534	shedule   594
	Task  2536	shedule   595
	Task  2538	shedule   596
	Task  2540	shedule   597
	Task  2542	shedule   598
	Task  2544	shedule   599
	Task  2546	shedule   600
	Task  2548	shedule   601
	Task  2550	shedule   602
	Task  2552	shedule   603
	Task  2554	shedule   604
	Task  2556	shedule   605
	Task  2558	shedule   606
	Task  2560	shedule   607
	Task  2562	shedule   608
	Task  2564	shedule   609
	Task  2566	shedule   610
	Task  2568	shedule   611
	Task  2570	shedule   612
	Task  2572	shedule   613
	Task  2576	shedule   614
	Task  3013	shedule   615
	Task  3017	shedule   616
	Task  3019	shedule   617
	Task  3021	shedule   618
	Task  3023	shedule   619
	Task  3025	shedule   620
	Task  3027	shedule   621
	Task  3029	shedule   622
	Task  3031	shedule   623
	Task  3033	shedule   624
	Task  3035	shedule   625
	Task  3037	shedule   626
	Task  3039	shedule   627
	Task  3041	shedule   628
	Task  3043	shedule   629
	Task  3045	shedule   630
	Task  3047	shedule   631
	Task  3049	shedule   632
	Task  3051	shedule   633
	Task  3053	shedule   634
	Task  3055	shedule   635
	Task  3057	shedule   636
	Task  3059	shedule   637
	Task  3061	shedule   638
	Task  3063	shedule   639
	Task  3065	shedule   640
	Task  3067	shedule   641
	Task  3069	shedule   642
	Task  3071	shedule   643
	Task  3073	shedule   644
	Task  3075	shedule   645
	Task  3077	shedule   646
	Task  3079	shedule   647
	Task  3081	shedule   648
	Task  3083	shedule   649
	Task  3085	shedule   650
	Task  3087	shedule   651
	Task  3089	shedule   652
	Task  3091	shedule   653
	Task  3093	shedule   654
	Task  3095	shedule   655
	Task  3097	shedule   656
	Task  3099	shedule   657
	Task  3101	shedule   658
	Task  3103	shedule   659
	Task  3105	shedule   660
	Task  3107	shedule   661
	Task  3109	shedule   662
	Task  3111	shedule   663
	Task  3113	shedule   664
	Task  3115	shedule   665
	Task  3118	shedule   666
	Task  3120	shedule   667
	Task  3122	shedule   668
	Task  3124	shedule   669
	Task  3126	shedule   670
	Task  3128	shedule   671
	Task  3130	shedule   672
	Task  3132	shedule   673
	Task  3134	shedule   674
	Task  3136	shedule   675
	Task  3138	shedule   676
	Task  3140	shedule   677
	Task  3142	shedule   678
	Task  3144	shedule   679
	Task  3146	shedule   680
	Task  3148	shedule   681
	Task  3150	shedule   682
	Task  3152	shedule   683
	Task  3154	shedule   684
	Task  3156	shedule   685
	Task  3158	shedule   686
	Task  3160	shedule   687
	Task  3162	shedule   688
	Task  3164	shedule   689
	Task  3166	shedule   690
	Task  3168	shedule   691
	Task  3170	shedule   692
	Task  3172	shedule   693
	Task  3174	shedule   694
	Task  3176	shedule   695
	Task  3178	shedule   696
	Task  3180	shedule   697
	Task  3182	shedule   698
	Task  3184	shedule   699
	Task  3186	shedule   700
	Task  3188	shedule   701
	Task  3190	shedule   702
	Task  3192	shedule   703
	Task  3194	shedule   704
	Task  3196	shedule   705
	Task  3198	shedule   706
	Task  3200	shedule   707
	Task  3202	shedule   708
	Task  3204	shedule   709
	Task  3206	shedule   710
	Task  3208	shedule   711
	Task  3210	shedule   712
	Task  3212	shedule   713
	Task  3214	shedule   714
	Task  3216	shedule   715
	Task  3218	shedule   716
	Task  3222	shedule   717
	Task  3224	shedule   718
	Task  3226	shedule   719
	Task  3228	shedule   720
	Task  3230	shedule   721
	Task  3232	shedule   722
	Task  3234	shedule   723
	Task  3236	shedule   724
	Task  3238	shedule   725
	Task  3240	shedule   726
	Task  3242	shedule   727
	Task  3244	shedule   728
	Task  3246	shedule   729
	Task  3248	shedule   730
	Task  3250	shedule   731
	Task  3252	shedule   732
	Task  3254	shedule   733
	Task  3256	shedule   734
	Task  3258	shedule   735
	Task  3260	shedule   736
	Task  3262	shedule   737
	Task  3264	shedule   738
	Task  3266	shedule   739
	Task  3268	shedule   740
	Task  3270	shedule   741
	Task  3272	shedule   742
	Task  3274	shedule   743
	Task  3276	shedule   744
	Task  3278	shedule   745
	Task  3280	shedule   746
	Task  3282	shedule   747
	Task  3284	shedule   748
	Task  3286	shedule   749
	Task  3288	shedule   750
	Task  3290	shedule   751
	Task  3292	shedule   752
	Task  3294	shedule   753
	Task  3296	shedule   754
	Task  3298	shedule   755
	Task  3300	shedule   756
	Task  3302	shedule   757
	Task  3304	shedule   758
	Task  3306	shedule   759
	Task  3308	shedule   760
	Task  3310	shedule   761
	Task  3312	shedule   762
	Task  3314	shedule   763
	Task  3316	shedule   764
	Task  3318	shedule   765
	Task  3320	shedule   766
	Task  3324	shedule   767
	Task  3330	shedule   768
	Task  3334	shedule   769
	Task  3336	shedule   770
	Task  3338	shedule   771
	Task  3340	shedule   772
	Task  3342	shedule   773
	Task  3344	shedule   774
	Task  3346	shedule   775
	Task  3348	shedule   776
	Task  3350	shedule   777
	Task  3352	shedule   778
	Task  3354	shedule   779
	Task  3356	shedule   780
	Task  3358	shedule   781
	Task  3360	shedule   782
	Task  3362	shedule   783
	Task  3364	shedule   784
	Task  3366	shedule   785
	Task  3368	shedule   786
	Task  3370	shedule   787
	Task  3372	shedule   788
	Task  3374	shedule   789
	Task  3376	shedule   790
	Task  3378	shedule   791
	Task  3380	shedule   792
	Task  3382	shedule   793
	Task  3384	shedule   794
	Task  3386	shedule   795
	Task  3388	shedule   796
	Task  3390	shedule   797
	Task  3392	shedule   798
	Task  3394	shedule   799
	Task  3396	shedule   800
	Task  3398	shedule   801
	Task  3400	shedule   802
	Task  3402	shedule   803
	Task  3404	shedule   804
	Task  3406	shedule   805
	Task  3408	shedule   806
	Task  3410	shedule   807
	Task  3412	shedule   808
	Task  3414	shedule   809
	Task  3416	shedule   810
	Task  3418	shedule   811
	Task  3420	shedule   812
	Task  3422	shedule   813
	Task  3424	shedule   814
	Task  3426	shedule   815
	Task  3428	shedule   816
	Task  3430	shedule   817
	Task  3432	shedule   818
	Task  3436	shedule   819
	Task  3873	shedule   820
	Task  3877	shedule   821
	Task  3879	shedule   822
	Task  3881	shedule   823
	Task  3883	shedule   824
	Task  3885	shedule   825
	Task  3887	shedule   826
	Task  3889	shedule   827
	Task  3891	shedule   828
	Task  3893	shedule   829
	Task  3895	shedule   830
	Task  3897	shedule   831
	Task  3899	shedule   832
	Task  3901	shedule   833
	Task  3903	shedule   834
	Task  3905	shedule   835
	Task  3907	shedule   836
	Task  3909	shedule   837
	Task  3911	shedule   838
	Task  3913	shedule   839
	Task  3915	shedule   840
	Task  3917	shedule   841
	Task  3919	shedule   842
	Task  3921	shedule   843
	Task  3923	shedule   844
	Task  3925	shedule   845
	Task  3927	shedule   846
	Task  3929	shedule   847
	Task  3931	shedule   848
	Task  3933	shedule   849
	Task  3935	shedule   850
	Task  3937	shedule   851
	Task  3939	shedule   852
	Task  3941	shedule   853
	Task  3943	shedule   854
	Task  3945	shedule   855
	Task  3947	shedule   856
	Task  3949	shedule   857
	Task  3951	shedule   858
	Task  3953	shedule   859
	Task  3955	shedule   860
	Task  3957	shedule   861
	Task  3959	shedule   862
	Task  3961	shedule   863
	Task  3963	shedule   864
	Task  3965	shedule   865
	Task  3967	shedule   866
	Task  3969	shedule   867
	Task  3971	shedule   868
	Task  3973	shedule   869
	Task  3975	shedule   870
	Task  3978	shedule   871
	Task  3980	shedule   872
	Task  3982	shedule   873
	Task  3984	shedule   874
	Task  3986	shedule   875
	Task  3988	shedule   876
	Task  3990	shedule   877
	Task  3992	shedule   878
	Task  3994	shedule   879
	Task  3996	shedule   880
	Task  3998	shedule   881
	Task  4000	shedule   882
	Task  4002	shedule   883
	Task  4004	shedule   884
	Task  4006	shedule   885
	Task  4008	shedule   886
	Task  4010	shedule   887
	Task  4012	shedule   888
	Task  4014	shedule   889
	Task  4016	shedule   890
	Task  4018	shedule   891
	Task  4020	shedule   892
	Task  4022	shedule   893
	Task  4024	shedule   894
	Task  4026	shedule   895
	Task  4028	shedule   896
	Task  4030	shedule   897
	Task  4032	shedule   898
	Task  4034	shedule   899
	Task  4036	shedule   900
	Task  4038	shedule   901
	Task  4040	shedule   902
	Task  4042	shedule   903
	Task  4044	shedule   904
	Task  4046	shedule   905
	Task  4048	shedule   906
	Task  4050	shedule   907
	Task  4052	shedule   908
	Task  4054	shedule   909
	Task  4056	shedule   910
	Task  4058	shedule   911
	Task  4060	shedule   912
	Task  4062	shedule   913
	Task  4064	shedule   914
	Task  4066	shedule   915
	Task  4068	shedule   916
	Task  4070	shedule   917
	Task  4072	shedule   918
	Task  4074	shedule   919
	Task  4076	shedule   920
	Task  4078	shedule   921
	Task  4082	shedule   922
	Task  4084	shedule   923
	Task  4086	shedule   924
	Task  4088	shedule   925
	Task  4090	shedule   926
	Task  4092	shedule   927
	Task  4094	shedule   928
	Task  4096	shedule   929
	Task  4098	shedule   930
	Task  4100	shedule   931
	Task  4102	shedule   932
	Task  4104	shedule   933
	Task  4106	shedule   934
	Task  4108	shedule   935
	Task  4110	shedule   936
	Task  4112	shedule   937
	Task  4114	shedule   938
	Task  4116	shedule   939
	Task  4118	shedule   940
	Task  4120	shedule   941
	Task  4122	shedule   942
	Task  4124	shedule   943
	Task  4126	shedule   944
	Task  4128	shedule   945
	Task  4130	shedule   946
	Task  4132	shedule   947
	Task  4134	shedule   948
	Task  4136	shedule   949
	Task  4138	shedule   950
	Task  4140	shedule   951
	Task  4142	shedule   952
	Task  4144	shedule   953
	Task  4146	shedule   954
	Task  4148	shedule   955
	Task  4150	shedule   956
	Task  4152	shedule   957
	Task  4154	shedule   958
	Task  4156	shedule   959
	Task  4158	shedule   960
	Task  4160	shedule   961
	Task  4162	shedule   962
	Task  4164	shedule   963
	Task  4166	shedule   964
	Task  4168	shedule   965
	Task  4170	shedule   966
	Task  4172	shedule   967
	Task  4174	shedule   968
	Task  4176	shedule   969
	Task  4178	shedule   970
	Task  4180	shedule   971
	Task  4184	shedule   972
	Task  4190	shedule   973
	Task  4194	shedule   974
	Task  4196	shedule   975
	Task  4198	shedule   976
	Task  4200	shedule   977
	Task  4202	shedule   978
	Task  4204	shedule   979
	Task  4206	shedule   980
	Task  4208	shedule   981
	Task  4210	shedule   982
	Task  4212	shedule   983
	Task  4214	shedule   984
	Task  4216	shedule   985
	Task  4218	shedule   986
	Task  4220	shedule   987
	Task  4222	shedule   988
	Task  4224	shedule   989
	Task  4226	shedule   990
	Task  4228	shedule   991
	Task  4230	shedule   992
	Task  4232	shedule   993
	Task  4234	shedule   994
	Task  4236	shedule   995
	Task  4238	shedule   996
	Task  4240	shedule   997
	Task  4242	shedule   998
	Task  4244	shedule   999
	Task  4246	shedule  1000
	Task  4248	shedule  1001
	Task  4250	shedule  1002
	Task  4252	shedule  1003
	Task  4254	shedule  1004
	Task  4256	shedule  1005
	Task  4258	shedule  1006
	Task  4260	shedule  1007
	Task  4262	shedule  1008
	Task  4264	shedule  1009
	Task  4266	shedule  1010
	Task  4268	shedule  1011
	Task  4270	shedule  1012
	Task  4272	shedule  1013
	Task  4274	shedule  1014
	Task  4276	shedule  1015
	Task  4278	shedule  1016
	Task  4280	shedule  1017
	Task  4282	shedule  1018
	Task  4284	shedule  1019
	Task  4286	shedule  1020
	Task  4288	shedule  1021
	Task  4290	shedule  1022
	Task  4292	shedule  1023
	Task  4296	shedule  1024

**********************
Node 10 with 4 Cores
**********************
Core Index:     0	Core Id:    15	Core Name:    PE-9	Task List Length:     0
Core Index:     1	Core Id:    16	Core Name:   PE-10	Task List Length:     0
Core Index:     2	Core Id:    17	Core Name:   PE-11	Task List Length:     0
Core Index:     3	Core Id:    18	Core Name:   PE-12	Task List Length:     0

**********************
Node 11 with 1 Cores
**********************
Core Index:     0	Core Id:    19	Core Name:  Core-3	Task List Length:   102
	Task  1399	shedule     0
	Task  1401	shedule     1
	Task  1403	shedule     2
	Task  1405	shedule     3
	Task  1407	shedule     4
	Task  1409	shedule     5
	Task  1411	shedule     6
	Task  1413	shedule     7
	Task  1415	shedule     8
	Task  1417	shedule     9
	Task  1419	shedule    10
	Task  1421	shedule    11
	Task  1423	shedule    12
	Task  1425	shedule    13
	Task  1427	shedule    14
	Task  1429	shedule    15
	Task  1431	shedule    16
	Task  1433	shedule    17
	Task  1435	shedule    18
	Task  1437	shedule    19
	Task  1439	shedule    20
	Task  1441	shedule    21
	Task  1443	shedule    22
	Task  1445	shedule    23
	Task  1447	shedule    24
	Task  1449	shedule    25
	Task  1451	shedule    26
	Task  1453	shedule    27
	Task  1455	shedule    28
	Task  1457	shedule    29
	Task  1459	shedule    30
	Task  1461	shedule    31
	Task  1463	shedule    32
	Task  1465	shedule    33
	Task  1467	shedule    34
	Task  1469	shedule    35
	Task  1471	shedule    36
	Task  1473	shedule    37
	Task  1475	shedule    38
	Task  1477	shedule    39
	Task  1479	shedule    40
	Task  1481	shedule    41
	Task  1483	shedule    42
	Task  1485	shedule    43
	Task  1487	shedule    44
	Task  1489	shedule    45
	Task  1491	shedule    46
	Task  1493	shedule    47
	Task  1495	shedule    48
	Task  1497	shedule    49
	Task  1499	shedule    50
	Task  3119	shedule    51
	Task  3121	shedule    52
	Task  3123	shedule    53
	Task  3125	shedule    54
	Task  3127	shedule    55
	Task  3129	shedule    56
	Task  3131	shedule    57
	Task  3133	shedule    58
	Task  3135	shedule    59
	Task  3137	shedule    60
	Task  3139	shedule    61
	Task  3141	shedule    62
	Task  3143	shedule    63
	Task  3145	shedule    64
	Task  3147	shedule    65
	Task  3149	shedule    66
	Task  3151	shedule    67
	Task  3153	shedule    68
	Task  3155	shedule    69
	Task  3157	shedule    70
	Task  3159	shedule    71
	Task  3161	shedule    72
	Task  3163	shedule    73
	Task  3165	shedule    74
	Task  3167	shedule    75
	Task  3169	shedule    76
	Task  3171	shedule    77
	Task  3173	shedule    78
	Task  3175	shedule    79
	Task  3177	shedule    80
	Task  3179	shedule    81
	Task  3181	shedule    82
	Task  3183	shedule    83
	Task  3185	shedule    84
	Task  3187	shedule    85
	Task  3189	shedule    86
	Task  3191	shedule    87
	Task  3193	shedule    88
	Task  3195	shedule    89
	Task  3197	shedule    90
	Task  3199	shedule    91
	Task  3201	shedule    92
	Task  3203	shedule    93
	Task  3205	shedule    94
	Task  3207	shedule    95
	Task  3209	shedule    96
	Task  3211	shedule    97
	Task  3213	shedule    98
	Task  3215	shedule    99
	Task  3217	shedule   100
	Task  3219	shedule   101

The Total task is 4300

info: Load Traffic - ./my_benchmarks/09_24/Application_01.stp - successfully !
info: Entering event queue @ 0.  Starting simulation...
info: Application - ./my_benchmarks/09_24/Application_01.stp - has executed successfully !
Execution iterations:   1
Average Iteration Delay: 16574
	Iteration   0 	Application Start time          1 	                Application End time      16575 	 Applcation Execution Delay:                 16574
Exiting @ tick 16574 because Network Task Graph Simulation Complete.
