gem5 Simulator System.  http://gem5.org
gem5 is copyrighted software; use the --copyright option for details.

gem5 compiled Nov 18 2020 01:38:04
gem5 started Nov 18 2020 01:38:44
gem5 executing on study.centos.wj, pid 122233
command line: /home/wj/Study/gem5/build/NULL/gem5.debug --outdir /home/wj/Study/gem5/my_STATS/11_18/multi_app/Application_02_Iters_20_Memory_Access_20_Memory_Type_DDR3 /home/wj/Study/gem5/configs/example/garnet_synth_traffic.py --topology=Ring --num-cpus=12 --num-dirs=12 --mesh-rows=1 --network=garnet2.0 --inj-vnet=2 --injectionrate=0 --token-packet-length=6 --network-task-graph-enable --task-graph-file=/home/wj/Study/gem5/my_benchmarks/11_18/Memory_Access_20_Memory_Type_DDR3/multi_application_02.cfg --execution-iteration=20 --routing-algorithm=2 --vcs-per-vnet=2 --link-width-bits=256 --architecture-file=/home/wj/Study/gem5/my_benchmarks/11_18/Heterogeneous_SoC_with_Ring_Topology.arch

Global frequency set at 1000000000 ticks per second
info: Load Application Configuration -/home/wj/Study/gem5/my_benchmarks/11_18/Memory_Access_20_Memory_Type_DDR3/multi_application_02.cfg - successfully !
**********************
Core ID -> Node ID

0	0
1	1
2	2
3	2
4	3
5	4
6	4
7	4
8	5
9	6
10	7
11	8
12	8
13	8
14	9
15	10
16	10
17	10
18	10
19	11

**********************
info: Construct Node -/home/wj/Study/gem5/my_benchmarks/11_18/Heterogeneous_SoC_with_Ring_Topology.arch - successfully !

Node ID: 0	Number of Cores: 1
	Core ID: 0	Core Name: HQM	Number of Threads: 1
Node ID: 1	Number of Cores: 1
	Core ID: 1	Core Name: Core-0	Number of Threads: 4
Node ID: 2	Number of Cores: 2
	Core ID: 2	Core Name: PE-1	Number of Threads: 25
	Core ID: 3	Core Name: PE-2	Number of Threads: 25
Node ID: 3	Number of Cores: 1
	Core ID: 4	Core Name: DDR-0	Number of Threads: 1
Node ID: 4	Number of Cores: 3
	Core ID: 5	Core Name: PE-3	Number of Threads: 25
	Core ID: 6	Core Name: PE-4	Number of Threads: 25
	Core ID: 7	Core Name: PE-5	Number of Threads: 1
Node ID: 5	Number of Cores: 1
	Core ID: 8	Core Name: PE-13	Number of Threads: 1
Node ID: 6	Number of Cores: 1
	Core ID: 9	Core Name: Core-1	Number of Threads: 4
Node ID: 7	Number of Cores: 1
	Core ID: 10	Core Name: Core-2	Number of Threads: 4
Node ID: 8	Number of Cores: 3
	Core ID: 11	Core Name: PE-6	Number of Threads: 1
	Core ID: 12	Core Name: PE-7	Number of Threads: 10
	Core ID: 13	Core Name: PE-8	Number of Threads: 1
Node ID: 9	Number of Cores: 1
	Core ID: 14	Core Name: DDR-1	Number of Threads: 1
Node ID: 10	Number of Cores: 4
	Core ID: 15	Core Name: PE-9	Number of Threads: 1
	Core ID: 16	Core Name: PE-10	Number of Threads: 1
	Core ID: 17	Core Name: PE-11	Number of Threads: 1
	Core ID: 18	Core Name: PE-12	Number of Threads: 1
Node ID: 11	Number of Cores: 1
	Core ID: 19	Core Name: Core-3	Number of Threads: 4

**********************
**********************
Traffic Information
**********************
Node 0 with 1 Cores
**********************
Core Index:     0	Core Id:     0	Core Name:     HQM

	Application: Application_01_0.stp

  	Task     5	shedule     0
  	Task    47	shedule     1
  	Task    90	shedule     2
  	Task   142	shedule     3

**********************
Node 1 with 1 Cores
**********************
Core Index:     0	Core Id:     1	Core Name:  Core-0

	Application: Application_01_0.stp

  	Task    49	shedule     0
  	Task    51	shedule     1
  	Task    53	shedule     2
  	Task    55	shedule     3
  	Task    57	shedule     4
  	Task    59	shedule     5
  	Task    61	shedule     6
  	Task    63	shedule     7
  	Task    65	shedule     8
  	Task    67	shedule     9
  	Task    69	shedule    10
  	Task    71	shedule    11
  	Task    73	shedule    12
  	Task    75	shedule    13
  	Task    77	shedule    14
  	Task    79	shedule    15
  	Task    81	shedule    16
  	Task    83	shedule    17
  	Task    85	shedule    18
  	Task    87	shedule    19
  	Task    89	shedule    20

**********************
Node 2 with 2 Cores
**********************
Core Index:     0	Core Id:     2	Core Name:    PE-1

	Application: Application_01_0.stp

  	Task     6	shedule     0
  	Task     8	shedule     1
  	Task    10	shedule     2
  	Task    12	shedule     3
  	Task    14	shedule     4
  	Task    16	shedule     5
  	Task    18	shedule     6
  	Task    20	shedule     7
  	Task    22	shedule     8
  	Task    24	shedule     9
  	Task    26	shedule    10
  	Task    28	shedule    11
  	Task    30	shedule    12
  	Task    32	shedule    13
  	Task    34	shedule    14
  	Task    36	shedule    15
  	Task    38	shedule    16
  	Task    40	shedule    17
  	Task    42	shedule    18
  	Task    44	shedule    19
  	Task    46	shedule    20
  	Task    91	shedule    21
  	Task    93	shedule    22
  	Task    95	shedule    23
  	Task    97	shedule    24
  	Task    99	shedule    25
  	Task   101	shedule    26
  	Task   103	shedule    27
  	Task   105	shedule    28
  	Task   107	shedule    29
  	Task   109	shedule    30
  	Task   111	shedule    31
  	Task   113	shedule    32
  	Task   115	shedule    33
  	Task   117	shedule    34
  	Task   119	shedule    35
  	Task   121	shedule    36
  	Task   123	shedule    37
  	Task   125	shedule    38
  	Task   127	shedule    39
  	Task   129	shedule    40
  	Task   131	shedule    41
  	Task   143	shedule    42
  	Task   145	shedule    43
  	Task   147	shedule    44
  	Task   149	shedule    45
  	Task   151	shedule    46
  	Task   153	shedule    47
  	Task   155	shedule    48
  	Task   157	shedule    49
  	Task   159	shedule    50
  	Task   161	shedule    51
  	Task   163	shedule    52
  	Task   165	shedule    53
  	Task   167	shedule    54
  	Task   169	shedule    55
  	Task   171	shedule    56
  	Task   173	shedule    57
  	Task   175	shedule    58
  	Task   177	shedule    59
  	Task   179	shedule    60
  	Task   181	shedule    61
  	Task   183	shedule    62
Core Index:     1	Core Id:     3	Core Name:    PE-2

	Application: Application_01_0.stp


**********************
Node 3 with 1 Cores
**********************
Core Index:     0	Core Id:     4	Core Name:   DDR-0

	Application: Application_01_0.stp

  	Task     3	shedule     0
  	Task     7	shedule     1
  	Task     9	shedule     2
  	Task    11	shedule     3
  	Task    13	shedule     4
  	Task    15	shedule     5
  	Task    17	shedule     6
  	Task    19	shedule     7
  	Task    21	shedule     8
  	Task    23	shedule     9
  	Task    25	shedule    10
  	Task    27	shedule    11
  	Task    29	shedule    12
  	Task    31	shedule    13
  	Task    33	shedule    14
  	Task    35	shedule    15
  	Task    37	shedule    16
  	Task    39	shedule    17
  	Task    41	shedule    18
  	Task    43	shedule    19
  	Task    45	shedule    20
  	Task    48	shedule    21
  	Task    50	shedule    22
  	Task    52	shedule    23
  	Task    54	shedule    24
  	Task    56	shedule    25
  	Task    58	shedule    26
  	Task    60	shedule    27
  	Task    62	shedule    28
  	Task    64	shedule    29
  	Task    66	shedule    30
  	Task    68	shedule    31
  	Task    70	shedule    32
  	Task    72	shedule    33
  	Task    74	shedule    34
  	Task    76	shedule    35
  	Task    78	shedule    36
  	Task    80	shedule    37
  	Task    82	shedule    38
  	Task    84	shedule    39
  	Task    86	shedule    40
  	Task    88	shedule    41
  	Task    92	shedule    42
  	Task    94	shedule    43
  	Task    96	shedule    44
  	Task    98	shedule    45
  	Task   100	shedule    46
  	Task   102	shedule    47
  	Task   104	shedule    48
  	Task   106	shedule    49
  	Task   108	shedule    50
  	Task   110	shedule    51
  	Task   112	shedule    52
  	Task   114	shedule    53
  	Task   116	shedule    54
  	Task   118	shedule    55
  	Task   120	shedule    56
  	Task   122	shedule    57
  	Task   124	shedule    58
  	Task   126	shedule    59
  	Task   128	shedule    60
  	Task   130	shedule    61
  	Task   134	shedule    62
  	Task   140	shedule    63
  	Task   144	shedule    64
  	Task   146	shedule    65
  	Task   148	shedule    66
  	Task   150	shedule    67
  	Task   152	shedule    68
  	Task   154	shedule    69
  	Task   156	shedule    70
  	Task   158	shedule    71
  	Task   160	shedule    72
  	Task   162	shedule    73
  	Task   164	shedule    74
  	Task   166	shedule    75
  	Task   168	shedule    76
  	Task   170	shedule    77
  	Task   172	shedule    78
  	Task   174	shedule    79
  	Task   176	shedule    80
  	Task   178	shedule    81
  	Task   180	shedule    82
  	Task   182	shedule    83
  	Task   186	shedule    84

**********************
Node 4 with 3 Cores
**********************
Core Index:     0	Core Id:     5	Core Name:    PE-3

	Application: Application_01_0.stp

Core Index:     1	Core Id:     6	Core Name:    PE-4

	Application: Application_01_0.stp

Core Index:     2	Core Id:     7	Core Name:    PE-5

	Application: Application_01_0.stp


**********************
Node 5 with 1 Cores
**********************
Core Index:     0	Core Id:     8	Core Name:   PE-13

	Application: Application_01_0.stp


**********************
Node 6 with 1 Cores
**********************
Core Index:     0	Core Id:     9	Core Name:  Core-1

	Application: Application_01_0.stp


**********************
Node 7 with 1 Cores
**********************
Core Index:     0	Core Id:    10	Core Name:  Core-2

	Application: Application_01_0.stp


**********************
Node 8 with 3 Cores
**********************
Core Index:     0	Core Id:    11	Core Name:    PE-6

	Application: Application_01_0.stp

  	Task     1	shedule     0
  	Task   136	shedule     1
  	Task   138	shedule     2
  	Task   188	shedule     3
Core Index:     1	Core Id:    12	Core Name:    PE-7

	Application: Application_01_0.stp

  	Task     0	shedule     0
  	Task     2	shedule     1
  	Task     4	shedule     2
  	Task   133	shedule     3
  	Task   135	shedule     4
  	Task   137	shedule     5
  	Task   139	shedule     6
  	Task   141	shedule     7
  	Task   185	shedule     8
  	Task   187	shedule     9
  	Task   189	shedule    10
Core Index:     2	Core Id:    13	Core Name:    PE-8

	Application: Application_01_0.stp

  	Task   132	shedule     0
  	Task   184	shedule     1

**********************
Node 9 with 1 Cores
**********************
Core Index:     0	Core Id:    14	Core Name:   DDR-1

	Application: Application_01_0.stp


**********************
Node 10 with 4 Cores
**********************
Core Index:     0	Core Id:    15	Core Name:    PE-9

	Application: Application_01_0.stp

Core Index:     1	Core Id:    16	Core Name:   PE-10

	Application: Application_01_0.stp

Core Index:     2	Core Id:    17	Core Name:   PE-11

	Application: Application_01_0.stp

Core Index:     3	Core Id:    18	Core Name:   PE-12

	Application: Application_01_0.stp


**********************
Node 11 with 1 Cores
**********************
Core Index:     0	Core Id:    19	Core Name:  Core-3

	Application: Application_01_0.stp


The Total task is 190

info: Load Traffic - /home/wj/Study/gem5/my_benchmarks/11_18/Memory_Access_20_Memory_Type_DDR3/multi_application_02.cfg - successfully !
Process Task   0!
Task   0 start
Process Task   2!
Task   2 requirement is not satisfied
Process Task   4!
Task   4 requirement is not satisfied
Process Task 133!
Task 133 requirement is not satisfied
Process Task 135!
Task 135 requirement is not satisfied
Process Task 137!
Task 137 requirement is not satisfied
Process Task 139!
Task 139 requirement is not satisfied
Process Task 141!
Task 141 requirement is not satisfied
Process Task 185!
Task 185 requirement is not satisfied
Process Task 187!
Task 187 requirement is not satisfied
Process Task 189!
Task 189 requirement is not satisfied
Process Task   0!
Task   0 start
Process Task   2!
Task   2 requirement is not satisfied
Process Task   4!
Task   4 requirement is not satisfied
Process Task 133!
Task 133 requirement is not satisfied
Process Task 135!
Task 135 requirement is not satisfied
Process Task 137!
Task 137 requirement is not satisfied
Process Task 139!
Task 139 requirement is not satisfied
Process Task 141!
Task 141 requirement is not satisfied
Process Task 185!
Task 185 requirement is not satisfied
Process Task 187!
Task 187 requirement is not satisfied
Process Task 189!
Task 189 requirement is not satisfied
Process Task   0!
Task   0 start
Process Task   2!
Task   2 requirement is not satisfied
Process Task   4!
Task   4 requirement is not satisfied
Process Task 133!
Task 133 requirement is not satisfied
Process Task 135!
Task 135 requirement is not satisfied
Process Task 137!
Task 137 requirement is not satisfied
Process Task 139!
Task 139 requirement is not satisfied
Process Task 141!
Task 141 requirement is not satisfied
Process Task 185!
Task 185 requirement is not satisfied
Process Task 187!
Task 187 requirement is not satisfied
Process Task 189!
Task 189 requirement is not satisfied
Process Task   0!
Task   0 start
Process Task   2!
Task   2 requirement is not satisfied
Process Task   4!
Task   4 requirement is not satisfied
Process Task 133!
Task 133 requirement is not satisfied
Process Task 135!
Task 135 requirement is not satisfied
Process Task 137!
Task 137 requirement is not satisfied
Process Task 139!
Task 139 requirement is not satisfied
Process Task 141!
Task 141 requirement is not satisfied
Process Task 185!
Task 185 requirement is not satisfied
Process Task 187!
Task 187 requirement is not satisfied
Process Task 189!
Task 189 requirement is not satisfied
Process Task   0!
Task   0 start
Process Task   2!
Task   2 requirement is not satisfied
Process Task   4!
Task   4 requirement is not satisfied
Process Task 133!
Task 133 requirement is not satisfied
Process Task 135!
Task 135 requirement is not satisfied
Process Task 137!
Task 137 requirement is not satisfied
Process Task 139!
Task 139 requirement is not satisfied
Process Task 141!
Task 141 requirement is not satisfied
Process Task 185!
Task 185 requirement is not satisfied
Process Task 187!
Task 187 requirement is not satisfied
Process Task 189!
Task 189 requirement is not satisfied
Process Task   0!
Task   0 start
Process Task   2!
Task   2 requirement is not satisfied
Process Task   4!
Task   4 requirement is not satisfied
Process Task 133!
Task 133 requirement is not satisfied
Process Task 135!
Task 135 requirement is not satisfied
Process Task 137!
Task 137 requirement is not satisfied
Process Task 139!
Task 139 requirement is not satisfied
Process Task 141!
Task 141 requirement is not satisfied
Process Task 185!
Task 185 requirement is not satisfied
Process Task 187!
Task 187 requirement is not satisfied
Process Task 189!
Task 189 requirement is not satisfied
Process Task   2!
Task   2 requirement is not satisfied
Process Task   4!
Task   4 requirement is not satisfied
Process Task 133!
Task 133 requirement is not satisfied
Process Task 135!
Task 135 requirement is not satisfied
Process Task 137!
Task 137 requirement is not satisfied
Process Task 139!
Task 139 requirement is not satisfied
Process Task 141!
Task 141 requirement is not satisfied
Process Task 185!
Task 185 requirement is not satisfied
Process Task 187!
Task 187 requirement is not satisfied
Process Task 189!
Task 189 requirement is not satisfied
Process Task   0!
Task   0 start
Process Task   2!
Task   2 start
Process Task   4!
Task   4 requirement is not satisfied
Process Task 133!
Task 133 requirement is not satisfied
Process Task 135!
Task 135 requirement is not satisfied
Process Task 137!
Task 137 requirement is not satisfied
Process Task 139!
Task 139 requirement is not satisfied
Process Task 141!
Task 141 requirement is not satisfied
Process Task 185!
Task 185 requirement is not satisfied
Process Task 187!
Task 187 requirement is not satisfied
Process Task 189!
Task 189 requirement is not satisfied
Process Task   0!
Task   0 start
Process Task   4!
Task   4 requirement is not satisfied
Process Task 133!
Task 133 requirement is not satisfied
Process Task 135!
Task 135 requirement is not satisfied
Process Task 137!
Task 137 requirement is not satisfied
Process Task 139!
Task 139 requirement is not satisfied
Process Task 141!
Task 141 requirement is not satisfied
Process Task 185!
Task 185 requirement is not satisfied
Process Task 187!
Task 187 requirement is not satisfied
Process Task 189!
Task 189 requirement is not satisfied
Process Task   2!
Task   2 start
Process Task   0!
Task   0 start
Process Task   4!
Task   4 requirement is not satisfied
Process Task 133!
Task 133 requirement is not satisfied
Process Task 135!
Task 135 requirement is not satisfied
Process Task 137!
Task 137 requirement is not satisfied
Process Task 139!
Task 139 requirement is not satisfied
Process Task 141!
Task 141 requirement is not satisfied
Process Task 185!
Task 185 requirement is not satisfied
Process Task 187!
Task 187 requirement is not satisfied
Process Task 189!
Task 189 requirement is not satisfied
Process Task   2!
Task   2 start
Process Task   0!
Task   0 start
Process Task   4!
Task   4 requirement is not satisfied
Process Task 133!
Task 133 requirement is not satisfied
Process Task 135!
Task 135 requirement is not satisfied
Process Task 137!
Task 137 requirement is not satisfied
Process Task 139!
Task 139 requirement is not satisfied
Process Task 141!
Task 141 requirement is not satisfied
Process Task 185!
Task 185 requirement is not satisfied
Process Task 187!
Task 187 requirement is not satisfied
Process Task 189!
Task 189 requirement is not satisfied
Process Task   2!
Task   2 start
Process Task   0!
Task   0 start
Process Task   4!
Task   4 requirement is not satisfied
Process Task 133!
Task 133 requirement is not satisfied
Process Task 135!
Task 135 requirement is not satisfied
Process Task 137!
Task 137 requirement is not satisfied
Process Task 139!
Task 139 requirement is not satisfied
Process Task 141!
Task 141 requirement is not satisfied
Process Task 185!
Task 185 requirement is not satisfied
Process Task 187!
Task 187 requirement is not satisfied
Process Task 189!
Task 189 requirement is not satisfied
Process Task   2!
Task   2 start
Process Task   0!
Task   0 start
Process Task   4!
Task   4 start
Process Task 133!
Task 133 requirement is not satisfied
Process Task 135!
Task 135 requirement is not satisfied
Process Task 137!
Task 137 requirement is not satisfied
Process Task 139!
Task 139 requirement is not satisfied
Process Task 141!
Task 141 requirement is not satisfied
Process Task 185!
Task 185 requirement is not satisfied
Process Task 187!
Task 187 requirement is not satisfied
Process Task 189!
Task 189 requirement is not satisfied
Process Task   2!
Task   2 start
Process Task   0!
Task   0 start
Process Task 133!
Task 133 requirement is not satisfied
Process Task 135!
Task 135 requirement is not satisfied
Process Task 137!
Task 137 requirement is not satisfied
Process Task 139!
Task 139 requirement is not satisfied
Process Task 141!
Task 141 requirement is not satisfied
Process Task 185!
Task 185 requirement is not satisfied
Process Task 187!
Task 187 requirement is not satisfied
Process Task 189!
Task 189 requirement is not satisfied
Process Task   4!
Task   4 start
Process Task   2!
Task   2 start
Process Task   0!
Task   0 start
Process Task 133!
Task 133 requirement is not satisfied
Process Task 135!
Task 135 requirement is not satisfied
Process Task 137!
Task 137 requirement is not satisfied
Process Task 139!
Task 139 requirement is not satisfied
Process Task 141!
Task 141 requirement is not satisfied
Process Task 185!
Task 185 requirement is not satisfied
Process Task 187!
Task 187 requirement is not satisfied
Process Task 189!
Task 189 requirement is not satisfied
Process Task   4!
Task   4 start
Process Task   2!
Task   2 start
Process Task   0!
Task   0 start
Process Task 133!
Task 133 requirement is not satisfied
Process Task 135!
Task 135 requirement is not satisfied
Process Task 137!
Task 137 requirement is not satisfied
Process Task 139!
Task 139 requirement is not satisfied
Process Task 141!
Task 141 requirement is not satisfied
Process Task 185!
Task 185 requirement is not satisfied
Process Task 187!
Task 187 requirement is not satisfied
Process Task 189!
Task 189 requirement is not satisfied
Process Task   4!
Task   4 start
Process Task   2!
Task   2 start
Process Task   0!
Task   0 start
Process Task 133!
Task 133 requirement is not satisfied
Process Task 135!
Task 135 requirement is not satisfied
Process Task 137!
Task 137 requirement is not satisfied
Process Task 139!
Task 139 requirement is not satisfied
Process Task 141!
Task 141 requirement is not satisfied
Process Task 185!
Task 185 requirement is not satisfied
Process Task 187!
Task 187 requirement is not satisfied
Process Task 189!
Task 189 requirement is not satisfied
Process Task   4!
Task   4 start
Process Task   2!
Task   2 start
Process Task   0!
Task   0 start
Process Task 133!
Task 133 requirement is not satisfied
Process Task 135!
Task 135 requirement is not satisfied
Process Task 137!
Task 137 requirement is not satisfied
Process Task 139!
Task 139 requirement is not satisfied
Process Task 141!
Task 141 requirement is not satisfied
Process Task 185!
Task 185 requirement is not satisfied
Process Task 187!
Task 187 requirement is not satisfied
Process Task 189!
Task 189 requirement is not satisfied
Process Task   4!
Task   4 start
Process Task   2!
Task   2 start
Process Task   0!
Task   0 start
Process Task 133!
Task 133 requirement is not satisfied
Process Task 135!
Task 135 requirement is not satisfied
Process Task 137!
Task 137 requirement is not satisfied
Process Task 139!
Task 139 requirement is not satisfied
Process Task 141!
Task 141 requirement is not satisfied
Process Task 185!
Task 185 requirement is not satisfied
Process Task 187!
Task 187 requirement is not satisfied
Process Task 189!
Task 189 requirement is not satisfied
Process Task   4!
Task   4 start
Process Task   2!
Task   2 start
Process Task   0!
Task   0 start
Process Task 133!
Task 133 requirement is not satisfied
Process Task 135!
Task 135 requirement is not satisfied
Process Task 137!
Task 137 requirement is not satisfied
Process Task 139!
Task 139 requirement is not satisfied
Process Task 141!
Task 141 requirement is not satisfied
Process Task 185!
Task 185 requirement is not satisfied
Process Task 187!
Task 187 requirement is not satisfied
Process Task 189!
Task 189 requirement is not satisfied
Process Task   4!
Task   4 start
Process Task   2!
Task   2 start
Process Task   0!
Task   0 start
Process Task 133!
Task 133 requirement is not satisfied
Process Task 135!
Task 135 requirement is not satisfied
Process Task 137!
Task 137 requirement is not satisfied
Process Task 139!
Task 139 requirement is not satisfied
Process Task 141!
Task 141 requirement is not satisfied
Process Task 185!
Task 185 requirement is not satisfied
Process Task 187!
Task 187 requirement is not satisfied
Process Task 189!
Task 189 requirement is not satisfied
Process Task   4!
Task   4 start
Process Task   2!
Task   2 start
Process Task   0!
Task   0 start
Process Task 133!
Task 133 requirement is not satisfied
Process Task 135!
Task 135 requirement is not satisfied
Process Task 137!
Task 137 requirement is not satisfied
Process Task 139!
Task 139 requirement is not satisfied
Process Task 141!
Task 141 requirement is not satisfied
Process Task 185!
Task 185 requirement is not satisfied
Process Task 187!
Task 187 requirement is not satisfied
Process Task 189!
Task 189 requirement is not satisfied
Process Task   4!
Task   4 start
Process Task   2!
Task   2 start
Process Task   0!
Task   0 start
Process Task 133!
Task 133 requirement is not satisfied
Process Task 135!
Task 135 requirement is not satisfied
Process Task 137!
Task 137 requirement is not satisfied
Process Task 139!
Task 139 requirement is not satisfied
Process Task 141!
Task 141 requirement is not satisfied
Process Task 185!
Task 185 requirement is not satisfied
Process Task 187!
Task 187 requirement is not satisfied
Process Task 189!
Task 189 requirement is not satisfied
Process Task   4!
Task   4 start
Process Task   2!
Task   2 start
Process Task   0!
Task   0 start
Process Task 133!
Task 133 requirement is not satisfied
Process Task 135!
Task 135 requirement is not satisfied
Process Task 137!
Task 137 requirement is not satisfied
Process Task 139!
Task 139 requirement is not satisfied
Process Task 141!
Task 141 requirement is not satisfied
Process Task 185!
Task 185 requirement is not satisfied
Process Task 187!
Task 187 requirement is not satisfied
Process Task 189!
Task 189 requirement is not satisfied
Process Task   4!
Task   4 start
Process Task   2!
Task   2 start
Process Task   0!
Task   0 start
Process Task 133!
Task 133 requirement is not satisfied
Process Task 135!
Task 135 requirement is not satisfied
Process Task 137!
Task 137 requirement is not satisfied
Process Task 139!
Task 139 requirement is not satisfied
Process Task 141!
Task 141 requirement is not satisfied
Process Task 185!
Task 185 requirement is not satisfied
Process Task 187!
Task 187 requirement is not satisfied
Process Task 189!
Task 189 requirement is not satisfied
Process Task   4!
Task   4 requirement is not satisfied
Process Task   2!
Task   2 start
Process Task   0!
Task   0 start
Process Task 133!
Task 133 requirement is not satisfied
Process Task 135!
Task 135 requirement is not satisfied
Process Task 137!
Task 137 requirement is not satisfied
Process Task 139!
Task 139 requirement is not satisfied
Process Task 141!
Task 141 requirement is not satisfied
Process Task 185!
Task 185 requirement is not satisfied
Process Task 187!
Task 187 requirement is not satisfied
Process Task 189!
Task 189 requirement is not satisfied
Process Task   4!
Task   4 start
Process Task   2!
Task   2 start
Process Task   0!
Task   0 start
Process Task 133!
Task 133 requirement is not satisfied
Process Task 135!
Task 135 requirement is not satisfied
Process Task 137!
Task 137 requirement is not satisfied
Process Task 139!
Task 139 requirement is not satisfied
Process Task 141!
Task 141 requirement is not satisfied
Process Task 185!
Task 185 requirement is not satisfied
Process Task 187!
Task 187 requirement is not satisfied
Process Task 189!
Task 189 requirement is not satisfied
Process Task   4!
Task   4 requirement is not satisfied
Process Task   2!
Task   2 start
Process Task   0!
Task   0 start
Process Task 133!
Task 133 requirement is not satisfied
Process Task 135!
Task 135 requirement is not satisfied
Process Task 137!
Task 137 requirement is not satisfied
Process Task 139!
Task 139 requirement is not satisfied
Process Task 141!
Task 141 requirement is not satisfied
Process Task 185!
Task 185 requirement is not satisfied
Process Task 187!
Task 187 requirement is not satisfied
Process Task 189!
Task 189 requirement is not satisfied
Process Task   4!
Task   4 start
Process Task   2!
Task   2 start
Process Task   0!
Task   0 start
Process Task 133!
Task 133 requirement is not satisfied
Process Task 135!
Task 135 requirement is not satisfied
Process Task 137!
Task 137 requirement is not satisfied
Process Task 139!
Task 139 requirement is not satisfied
Process Task 141!
Task 141 requirement is not satisfied
Process Task 185!
Task 185 requirement is not satisfied
Process Task 187!
Task 187 requirement is not satisfied
Process Task 189!
Task 189 requirement is not satisfied
Process Task   4!
Task   4 start
Process Task   2!
Task   2 start
Process Task   0!
Task   0 start
Process Task 133!
Task 133 requirement is not satisfied
Process Task 135!
Task 135 requirement is not satisfied
Process Task 137!
Task 137 requirement is not satisfied
Process Task 139!
Task 139 requirement is not satisfied
Process Task 141!
Task 141 requirement is not satisfied
Process Task 185!
Task 185 requirement is not satisfied
Process Task 187!
Task 187 requirement is not satisfied
Process Task 189!
Task 189 requirement is not satisfied
Process Task   4!
Task   4 start
Process Task   2!
Task   2 start
Process Task   0!
Task   0 start
Process Task 133!
Task 133 requirement is not satisfied
Process Task 135!
Task 135 requirement is not satisfied
Process Task 137!
Task 137 requirement is not satisfied
Process Task 139!
Task 139 requirement is not satisfied
Process Task 141!
Task 141 requirement is not satisfied
Process Task 185!
Task 185 requirement is not satisfied
Process Task 187!
Task 187 requirement is not satisfied
Process Task 189!
Task 189 requirement is not satisfied
Process Task   4!
Task   4 start
Process Task   2!
Task   2 start
Process Task   0!
Task   0 start
Process Task 133!
Task 133 requirement is not satisfied
Process Task 135!
Task 135 requirement is not satisfied
Process Task 137!
Task 137 requirement is not satisfied
Process Task 139!
Task 139 requirement is not satisfied
Process Task 141!
Task 141 requirement is not satisfied
Process Task 185!
Task 185 requirement is not satisfied
Process Task 187!
Task 187 requirement is not satisfied
Process Task 189!
Task 189 requirement is not satisfied
Process Task   4!
Task   4 start
Process Task   2!
Task   2 start
Process Task   0!
Task   0 start
Process Task 133!
Task 133 requirement is not satisfied
Process Task 135!
Task 135 requirement is not satisfied
Process Task 137!
Task 137 requirement is not satisfied
Process Task 139!
Task 139 requirement is not satisfied
Process Task 141!
Task 141 requirement is not satisfied
Process Task 185!
Task 185 requirement is not satisfied
Process Task 187!
Task 187 requirement is not satisfied
Process Task 189!
Task 189 requirement is not satisfied
Process Task   4!
Task   4 requirement is not satisfied
Process Task   2!
Task   2 start
Process Task   0!
Task   0 start
Process Task 133!
Task 133 requirement is not satisfied
Process Task 135!
Task 135 requirement is not satisfied
Process Task 137!
Task 137 requirement is not satisfied
Process Task 139!
Task 139 requirement is not satisfied
Process Task 141!
Task 141 requirement is not satisfied
Process Task 185!
Task 185 requirement is not satisfied
Process Task 187!
Task 187 requirement is not satisfied
Process Task 189!
Task 189 requirement is not satisfied
Process Task   4!
Task   4 requirement is not satisfied
Process Task   2!
Task   2 start
Process Task   0!
Task   0 start
Process Task 133!
Task 133 requirement is not satisfied
Process Task 135!
Task 135 requirement is not satisfied
Process Task 137!
Task 137 requirement is not satisfied
Process Task 139!
Task 139 requirement is not satisfied
Process Task 141!
Task 141 requirement is not satisfied
Process Task 185!
Task 185 requirement is not satisfied
Process Task 187!
Task 187 requirement is not satisfied
Process Task 189!
Task 189 requirement is not satisfied
Process Task   4!
Task   4 start
Process Task   2!
Task   2 start
Process Task   0!
Task   0 start
Process Task 133!
Task 133 requirement is not satisfied
Process Task 135!
Task 135 requirement is not satisfied
Process Task 137!
Task 137 requirement is not satisfied
Process Task 139!
Task 139 requirement is not satisfied
Process Task 141!
Task 141 requirement is not satisfied
Process Task 185!
Task 185 requirement is not satisfied
Process Task 187!
Task 187 requirement is not satisfied
Process Task 189!
Task 189 requirement is not satisfied
Process Task   4!
Task   4 start
Process Task   2!
Task   2 start
Process Task   0!
Task   0 start
Process Task 133!
Task 133 requirement is not satisfied
Process Task 135!
Task 135 requirement is not satisfied
Process Task 137!
Task 137 requirement is not satisfied
Process Task 139!
Task 139 requirement is not satisfied
Process Task 141!
Task 141 requirement is not satisfied
Process Task 185!
Task 185 requirement is not satisfied
Process Task 187!
Task 187 requirement is not satisfied
Process Task 189!
Task 189 requirement is not satisfied
Process Task   4!
Task   4 start
Process Task   2!
Task   2 start
Process Task   0!
Task   0 start
Process Task 133!
Task 133 requirement is not satisfied
Process Task 135!
Task 135 requirement is not satisfied
Process Task 137!
Task 137 requirement is not satisfied
Process Task 139!
Task 139 requirement is not satisfied
Process Task 141!
Task 141 requirement is not satisfied
Process Task 185!
Task 185 requirement is not satisfied
Process Task 187!
Task 187 requirement is not satisfied
Process Task 189!
Task 189 requirement is not satisfied
Process Task   4!
Task   4 start
Process Task   2!
Task   2 start
Process Task   0!
Task   0 start
Process Task 133!
Task 133 requirement is not satisfied
Process Task 135!
Task 135 requirement is not satisfied
Process Task 137!
Task 137 requirement is not satisfied
Process Task 139!
Task 139 requirement is not satisfied
Process Task 141!
Task 141 requirement is not satisfied
Process Task 185!
Task 185 requirement is not satisfied
Process Task 187!
Task 187 requirement is not satisfied
Process Task 189!
Task 189 requirement is not satisfied
Process Task   4!
Task   4 start
Process Task   2!
Task   2 start
Process Task   0!
Task   0 start
Process Task 133!
Task 133 requirement is not satisfied
Process Task 135!
Task 135 requirement is not satisfied
Process Task 137!
Task 137 requirement is not satisfied
Process Task 139!
Task 139 requirement is not satisfied
Process Task 141!
Task 141 requirement is not satisfied
Process Task 185!
Task 185 requirement is not satisfied
Process Task 187!
Task 187 requirement is not satisfied
Process Task 189!
Task 189 requirement is not satisfied
Process Task   4!
Task   4 requirement is not satisfied
Process Task   2!
Task   2 start
Process Task   0!
Task   0 start
Process Task 133!
Task 133 requirement is not satisfied
Process Task 135!
Task 135 requirement is not satisfied
Process Task 137!
Task 137 requirement is not satisfied
Process Task 139!
Task 139 requirement is not satisfied
Process Task 141!
Task 141 requirement is not satisfied
Process Task 185!
Task 185 requirement is not satisfied
Process Task 187!
Task 187 requirement is not satisfied
Process Task 189!
Task 189 requirement is not satisfied
Process Task   4!
Task   4 start
Process Task   2!
Task   2 start
Process Task   0!
Task   0 start
Process Task 133!
Task 133 requirement is not satisfied
Process Task 135!
Task 135 requirement is not satisfied
Process Task 137!
Task 137 requirement is not satisfied
Process Task 139!
Task 139 requirement is not satisfied
Process Task 141!
Task 141 requirement is not satisfied
Process Task 185!
Task 185 requirement is not satisfied
Process Task 187!
Task 187 requirement is not satisfied
Process Task 189!
Task 189 requirement is not satisfied
Process Task   4!
Task   4 start
Process Task   2!
Task   2 start
Process Task   0!
Task   0 start
Process Task 133!
Task 133 requirement is not satisfied
Process Task 135!
Task 135 requirement is not satisfied
Process Task 137!
Task 137 requirement is not satisfied
Process Task 139!
Task 139 requirement is not satisfied
Process Task 141!
Task 141 requirement is not satisfied
Process Task 185!
Task 185 requirement is not satisfied
Process Task 187!
Task 187 requirement is not satisfied
Process Task 189!
Task 189 requirement is not satisfied
Process Task   4!
Task   4 start
Process Task   2!
Task   2 start
Process Task   0!
Task   0 start
Process Task 133!
Task 133 requirement is not satisfied
Process Task 135!
Task 135 requirement is not satisfied
Process Task 137!
Task 137 requirement is not satisfied
Process Task 139!
Task 139 requirement is not satisfied
Process Task 141!
Task 141 requirement is not satisfied
Process Task 185!
Task 185 requirement is not satisfied
Process Task 187!
Task 187 requirement is not satisfied
Process Task 189!
Task 189 requirement is not satisfied
Process Task   4!
Task   4 start
Process Task   2!
Task   2 start
Process Task   0!
Task   0 start
Process Task 133!
Task 133 requirement is not satisfied
Process Task 135!
Task 135 requirement is not satisfied
Process Task 137!
Task 137 requirement is not satisfied
Process Task 139!
Task 139 requirement is not satisfied
Process Task 141!
Task 141 requirement is not satisfied
Process Task 185!
Task 185 requirement is not satisfied
Process Task 187!
Task 187 requirement is not satisfied
Process Task 189!
Task 189 requirement is not satisfied
Process Task   4!
Task   4 start
Process Task   2!
Task   2 start
Process Task   0!
Task   0 start
Process Task 133!
Task 133 requirement is not satisfied
Process Task 135!
Task 135 requirement is not satisfied
Process Task 137!
Task 137 requirement is not satisfied
Process Task 139!
Task 139 requirement is not satisfied
Process Task 141!
Task 141 requirement is not satisfied
Process Task 185!
Task 185 requirement is not satisfied
Process Task 187!
Task 187 requirement is not satisfied
Process Task 189!
Task 189 requirement is not satisfied
Process Task   4!
Task   4 start
Process Task   2!
Task   2 start
Process Task   0!
Task   0 start
Process Task 133!
Task 133 requirement is not satisfied
Process Task 135!
Task 135 requirement is not satisfied
Process Task 137!
Task 137 requirement is not satisfied
Process Task 139!
Task 139 requirement is not satisfied
Process Task 141!
Task 141 requirement is not satisfied
Process Task 185!
Task 185 requirement is not satisfied
Process Task 187!
Task 187 requirement is not satisfied
Process Task 189!
Task 189 requirement is not satisfied
Process Task   4!
Task   4 start
Process Task   2!
Task   2 start
Process Task   0!
Task   0 start
Process Task 133!
Task 133 requirement is not satisfied
Process Task 135!
Task 135 requirement is not satisfied
Process Task 137!
Task 137 requirement is not satisfied
Process Task 139!
Task 139 requirement is not satisfied
Process Task 141!
Task 141 requirement is not satisfied
Process Task 185!
Task 185 requirement is not satisfied
Process Task 187!
Task 187 requirement is not satisfied
Process Task 189!
Task 189 requirement is not satisfied
Process Task   4!
Task   4 start
Process Task   2!
Task   2 start
Process Task   0!
Task   0 start
Process Task 133!
Task 133 requirement is not satisfied
Process Task 135!
Task 135 requirement is not satisfied
Process Task 137!
Task 137 requirement is not satisfied
Process Task 139!
Task 139 requirement is not satisfied
Process Task 141!
Task 141 requirement is not satisfied
Process Task 185!
Task 185 requirement is not satisfied
Process Task 187!
Task 187 requirement is not satisfied
Process Task 189!
Task 189 requirement is not satisfied
Process Task   4!
Task   4 start
Process Task   2!
Task   2 start
Process Task   0!
Task   0 start
Process Task 133!
Task 133 requirement is not satisfied
Process Task 135!
Task 135 requirement is not satisfied
Process Task 137!
Task 137 requirement is not satisfied
Process Task 139!
Task 139 requirement is not satisfied
Process Task 141!
Task 141 requirement is not satisfied
Process Task 185!
Task 185 requirement is not satisfied
Process Task 187!
Task 187 requirement is not satisfied
Process Task 189!
Task 189 requirement is not satisfied
Process Task   4!
Task   4 requirement is not satisfied
Process Task   2!
Task   2 start
Process Task   0!
Task   0 start
Process Task 133!
Task 133 requirement is not satisfied
Process Task 135!
Task 135 requirement is not satisfied
Process Task 137!
Task 137 requirement is not satisfied
Process Task 139!
Task 139 requirement is not satisfied
Process Task 141!
Task 141 requirement is not satisfied
Process Task 185!
Task 185 requirement is not satisfied
Process Task 187!
Task 187 requirement is not satisfied
Process Task 189!
Task 189 requirement is not satisfied
Process Task   4!
Task   4 start
Process Task   2!
Task   2 start
Process Task   0!
Task   0 start
Process Task 133!
Task 133 requirement is not satisfied
Process Task 135!
Task 135 requirement is not satisfied
Process Task 137!
Task 137 requirement is not satisfied
Process Task 139!
Task 139 requirement is not satisfied
Process Task 141!
Task 141 requirement is not satisfied
Process Task 185!
Task 185 requirement is not satisfied
Process Task 187!
Task 187 requirement is not satisfied
Process Task 189!
Task 189 requirement is not satisfied
Process Task   4!
Task   4 start
Process Task   2!
Task   2 start
Process Task   0!
Task   0 start
Process Task 133!
Task 133 requirement is not satisfied
Process Task 135!
Task 135 requirement is not satisfied
Process Task 137!
Task 137 requirement is not satisfied
Process Task 139!
Task 139 requirement is not satisfied
Process Task 141!
Task 141 requirement is not satisfied
Process Task 185!
Task 185 requirement is not satisfied
Process Task 187!
Task 187 requirement is not satisfied
Process Task 189!
Task 189 requirement is not satisfied
Process Task   4!
Task   4 start
Process Task   2!
Task   2 start
Process Task   0!
Task   0 start
Process Task 133!
Task 133 requirement is not satisfied
Process Task 135!
Task 135 requirement is not satisfied
Process Task 137!
Task 137 requirement is not satisfied
Process Task 139!
Task 139 requirement is not satisfied
Process Task 141!
Task 141 requirement is not satisfied
Process Task 185!
Task 185 requirement is not satisfied
Process Task 187!
Task 187 requirement is not satisfied
Process Task 189!
Task 189 requirement is not satisfied
Process Task   4!
Task   4 start
Process Task   2!
Task   2 start
Process Task   0!
Task   0 start
Process Task 133!
Task 133 requirement is not satisfied
Process Task 135!
Task 135 requirement is not satisfied
Process Task 137!
Task 137 requirement is not satisfied
Process Task 139!
Task 139 requirement is not satisfied
Process Task 141!
Task 141 requirement is not satisfied
Process Task 185!
Task 185 requirement is not satisfied
Process Task 187!
Task 187 requirement is not satisfied
Process Task 189!
Task 189 requirement is not satisfied
Process Task   4!
Task   4 requirement is not satisfied
Process Task   2!
Task   2 start
Process Task   0!
Task   0 start
Process Task 133!
Task 133 requirement is not satisfied
Process Task 135!
Task 135 requirement is not satisfied
Process Task 137!
Task 137 requirement is not satisfied
Process Task 139!
Task 139 requirement is not satisfied
Process Task 141!
Task 141 requirement is not satisfied
Process Task 185!
Task 185 requirement is not satisfied
Process Task 187!
Task 187 requirement is not satisfied
Process Task 189!
Task 189 requirement is not satisfied
Process Task   4!
Task   4 requirement is not satisfied
Process Task   2!
Task   2 start
Process Task   0!
Task   0 start
Process Task 133!
Task 133 requirement is not satisfied
Process Task 135!
Task 135 requirement is not satisfied
Process Task 137!
Task 137 requirement is not satisfied
Process Task 139!
Task 139 requirement is not satisfied
Process Task 141!
Task 141 requirement is not satisfied
Process Task 185!
Task 185 requirement is not satisfied
Process Task 187!
Task 187 requirement is not satisfied
Process Task 189!
Task 189 requirement is not satisfied
Process Task   4!
Task   4 start
Process Task   2!
Task   2 start
Process Task   0!
Task   0 start
Process Task 133!
Task 133 requirement is not satisfied
Process Task 135!
Task 135 requirement is not satisfied
Process Task 137!
Task 137 requirement is not satisfied
Process Task 139!
Task 139 requirement is not satisfied
Process Task 141!
Task 141 requirement is not satisfied
Process Task 185!
Task 185 requirement is not satisfied
Process Task 187!
Task 187 requirement is not satisfied
Process Task 189!
Task 189 requirement is not satisfied
Process Task   4!
Task   4 requirement is not satisfied
Process Task   2!
Task   2 start
Process Task   0!
Task   0 start
Process Task 133!
Task 133 requirement is not satisfied
Process Task 135!
Task 135 requirement is not satisfied
Process Task 137!
Task 137 requirement is not satisfied
Process Task 139!
Task 139 requirement is not satisfied
Process Task 141!
Task 141 requirement is not satisfied
Process Task 185!
Task 185 requirement is not satisfied
Process Task 187!
Task 187 requirement is not satisfied
Process Task 189!
Task 189 requirement is not satisfied
Process Task   4!
Task   4 start
Process Task   2!
Task   2 start
Process Task   0!
Task   0 start
Process Task 133!
Task 133 requirement is not satisfied
Process Task 135!
Task 135 requirement is not satisfied
Process Task 137!
Task 137 requirement is not satisfied
Process Task 139!
Task 139 requirement is not satisfied
Process Task 141!
Task 141 requirement is not satisfied
Process Task 185!
Task 185 requirement is not satisfied
Process Task 187!
Task 187 requirement is not satisfied
Process Task 189!
Task 189 requirement is not satisfied
Process Task   4!
Task   4 start
Process Task   2!
Task   2 start
Process Task   0!
Task   0 start
Process Task 133!
Task 133 requirement is not satisfied
Process Task 135!
Task 135 requirement is not satisfied
Process Task 137!
Task 137 requirement is not satisfied
Process Task 139!
Task 139 requirement is not satisfied
Process Task 141!
Task 141 requirement is not satisfied
Process Task 185!
Task 185 requirement is not satisfied
Process Task 187!
Task 187 requirement is not satisfied
Process Task 189!
Task 189 requirement is not satisfied
Process Task   4!
Task   4 start
Process Task   2!
Task   2 start
Process Task   0!
Task   0 start
Process Task 133!
Task 133 requirement is not satisfied
Process Task 135!
Task 135 requirement is not satisfied
Process Task 137!
Task 137 requirement is not satisfied
Process Task 139!
Task 139 requirement is not satisfied
Process Task 141!
Task 141 requirement is not satisfied
Process Task 185!
Task 185 requirement is not satisfied
Process Task 187!
Task 187 requirement is not satisfied
Process Task 189!
Task 189 requirement is not satisfied
Process Task   4!
Task   4 start
Process Task   2!
Task   2 start
Process Task   0!
Task   0 start
Process Task 133!
Task 133 requirement is not satisfied
Process Task 135!
Task 135 requirement is not satisfied
Process Task 137!
Task 137 requirement is not satisfied
Process Task 139!
Task 139 requirement is not satisfied
Process Task 141!
Task 141 requirement is not satisfied
Process Task 185!
Task 185 requirement is not satisfied
Process Task 187!
Task 187 requirement is not satisfied
Process Task 189!
Task 189 requirement is not satisfied
Process Task   4!
Task   4 start
Process Task   2!
Task   2 start
Process Task   0!
Task   0 start
Process Task 133!
Task 133 requirement is not satisfied
Process Task 135!
Task 135 requirement is not satisfied
Process Task 137!
Task 137 requirement is not satisfied
Process Task 139!
Task 139 requirement is not satisfied
Process Task 141!
Task 141 requirement is not satisfied
Process Task 185!
Task 185 requirement is not satisfied
Process Task 187!
Task 187 requirement is not satisfied
Process Task 189!
Task 189 requirement is not satisfied
Process Task   4!
Task   4 start
Process Task   2!
Task   2 start
Process Task   0!
Task   0 start
Process Task 133!
Task 133 requirement is not satisfied
Process Task 135!
Task 135 requirement is not satisfied
Process Task 137!
Task 137 requirement is not satisfied
Process Task 139!
Task 139 requirement is not satisfied
Process Task 141!
Task 141 requirement is not satisfied
Process Task 185!
Task 185 requirement is not satisfied
Process Task 187!
Task 187 requirement is not satisfied
Process Task 189!
Task 189 requirement is not satisfied
Process Task   4!
Task   4 requirement is not satisfied
Process Task   2!
Task   2 start
Process Task   0!
Task   0 start
Process Task 133!
Task 133 requirement is not satisfied
Process Task 135!
Task 135 requirement is not satisfied
Process Task 137!
Task 137 requirement is not satisfied
Process Task 139!
Task 139 requirement is not satisfied
Process Task 141!
Task 141 requirement is not satisfied
Process Task 185!
Task 185 requirement is not satisfied
Process Task 187!
Task 187 requirement is not satisfied
Process Task 189!
Task 189 requirement is not satisfied
Process Task   4!
Task   4 start
Process Task   2!
Task   2 start
Process Task   0!
Task   0 start
Process Task 133!
Task 133 requirement is not satisfied
Process Task 135!
Task 135 requirement is not satisfied
Process Task 137!
Task 137 requirement is not satisfied
Process Task 139!
Task 139 requirement is not satisfied
Process Task 141!
Task 141 requirement is not satisfied
Process Task 185!
Task 185 requirement is not satisfied
Process Task 187!
Task 187 requirement is not satisfied
Process Task 189!
Task 189 requirement is not satisfied
Process Task   4!
Task   4 start
Process Task   2!
Task   2 start
Process Task   0!
Task   0 start
Process Task 133!
Task 133 requirement is not satisfied
Process Task 135!
Task 135 requirement is not satisfied
Process Task 137!
Task 137 requirement is not satisfied
Process Task 139!
Task 139 requirement is not satisfied
Process Task 141!
Task 141 requirement is not satisfied
Process Task 185!
Task 185 requirement is not satisfied
Process Task 187!
Task 187 requirement is not satisfied
Process Task 189!
Task 189 requirement is not satisfied
Process Task   4!
Task   4 requirement is not satisfied
Process Task   2!
Task   2 start
Process Task   0!
Task   0 start
Process Task 133!
Task 133 requirement is not satisfied
Process Task 135!
Task 135 requirement is not satisfied
Process Task 137!
Task 137 requirement is not satisfied
Process Task 139!
Task 139 requirement is not satisfied
Process Task 141!
Task 141 requirement is not satisfied
Process Task 185!
Task 185 requirement is not satisfied
Process Task 187!
Task 187 requirement is not satisfied
Process Task 189!
Task 189 requirement is not satisfied
Process Task   4!
Task   4 start
Process Task   2!
Task   2 start
Process Task   0!
Task   0 start
Process Task 133!
Task 133 requirement is not satisfied
Process Task 135!
Task 135 requirement is not satisfied
Process Task 137!
Task 137 requirement is not satisfied
Process Task 139!
Task 139 requirement is not satisfied
Process Task 141!
Task 141 requirement is not satisfied
Process Task 185!
Task 185 requirement is not satisfied
Process Task 187!
Task 187 requirement is not satisfied
Process Task 189!
Task 189 requirement is not satisfied
Process Task   4!
Task   4 start
Process Task   2!
Task   2 start
Process Task   0!
Task   0 start
Process Task 133!
Task 133 requirement is not satisfied
Process Task 135!
Task 135 requirement is not satisfied
Process Task 137!
Task 137 requirement is not satisfied
Process Task 139!
Task 139 requirement is not satisfied
Process Task 141!
Task 141 requirement is not satisfied
Process Task 185!
Task 185 requirement is not satisfied
Process Task 187!
Task 187 requirement is not satisfied
Process Task 189!
Task 189 requirement is not satisfied
Process Task   4!
Task   4 requirement is not satisfied
Process Task   2!
Task   2 start
Process Task   0!
Task   0 start
Process Task 133!
Task 133 requirement is not satisfied
Process Task 135!
Task 135 requirement is not satisfied
Process Task 137!
Task 137 requirement is not satisfied
Process Task 139!
Task 139 requirement is not satisfied
Process Task 141!
Task 141 requirement is not satisfied
Process Task 185!
Task 185 requirement is not satisfied
Process Task 187!
Task 187 requirement is not satisfied
Process Task 189!
Task 189 requirement is not satisfied
Process Task   4!
Task   4 requirement is not satisfied
Process Task   2!
Task   2 start
Process Task   0!
Task   0 start
Process Task 133!
Task 133 requirement is not satisfied
Process Task 135!
Task 135 requirement is not satisfied
Process Task 137!
Task 137 requirement is not satisfied
Process Task 139!
Task 139 requirement is not satisfied
Process Task 141!
Task 141 requirement is not satisfied
Process Task 185!
Task 185 requirement is not satisfied
Process Task 187!
Task 187 requirement is not satisfied
Process Task 189!
Task 189 requirement is not satisfied
Process Task   4!
Task   4 requirement is not satisfied
Process Task   2!
Task   2 start
Process Task   0!
Task   0 start
Process Task 133!
Task 133 requirement is not satisfied
Process Task 135!
Task 135 requirement is not satisfied
Process Task 137!
Task 137 requirement is not satisfied
Process Task 139!
Task 139 requirement is not satisfied
Process Task 141!
Task 141 requirement is not satisfied
Process Task 185!
Task 185 requirement is not satisfied
Process Task 187!
Task 187 requirement is not satisfied
Process Task 189!
Task 189 requirement is not satisfied
Process Task   4!
Task   4 start
Process Task   2!
Task   2 start
Process Task   0!
Task   0 start
Process Task 133!
Task 133 requirement is not satisfied
Process Task 135!
Task 135 requirement is not satisfied
Process Task 137!
Task 137 requirement is not satisfied
Process Task 139!
Task 139 requirement is not satisfied
Process Task 141!
Task 141 requirement is not satisfied
Process Task 185!
Task 185 requirement is not satisfied
Process Task 187!
Task 187 requirement is not satisfied
Process Task 189!
Task 189 requirement is not satisfied
Process Task   4!
Task   4 requirement is not satisfied
Process Task   2!
Task   2 start
Process Task   0!
Task   0 start
Process Task 133!
Task 133 requirement is not satisfied
Process Task 135!
Task 135 requirement is not satisfied
Process Task 137!
Task 137 requirement is not satisfied
Process Task 139!
Task 139 requirement is not satisfied
Process Task 141!
Task 141 requirement is not satisfied
Process Task 185!
Task 185 requirement is not satisfied
Process Task 187!
Task 187 requirement is not satisfied
Process Task 189!
Task 189 requirement is not satisfied
Process Task   4!
Task   4 start
Process Task   2!
Task   2 start
Process Task   0!
Task   0 start
Process Task 133!
Task 133 requirement is not satisfied
Process Task 135!
Task 135 requirement is not satisfied
Process Task 137!
Task 137 requirement is not satisfied
Process Task 139!
Task 139 requirement is not satisfied
Process Task 141!
Task 141 requirement is not satisfied
Process Task 185!
Task 185 requirement is not satisfied
Process Task 187!
Task 187 requirement is not satisfied
Process Task 189!
Task 189 requirement is not satisfied
Process Task   4!
Task   4 start
Process Task   2!
Task   2 start
Process Task   0!
Task   0 start
Process Task 133!
Task 133 requirement is not satisfied
Process Task 135!
Task 135 requirement is not satisfied
Process Task 137!
Task 137 requirement is not satisfied
Process Task 139!
Task 139 requirement is not satisfied
Process Task 141!
Task 141 requirement is not satisfied
Process Task 185!
Task 185 requirement is not satisfied
Process Task 187!
Task 187 requirement is not satisfied
Process Task 189!
Task 189 requirement is not satisfied
Process Task   4!
Task   4 start
Process Task   2!
Task   2 start
Process Task   0!
Task   0 start
Process Task 133!
Task 133 requirement is not satisfied
Process Task 135!
Task 135 requirement is not satisfied
Process Task 137!
Task 137 requirement is not satisfied
Process Task 139!
Task 139 requirement is not satisfied
Process Task 141!
Task 141 requirement is not satisfied
Process Task 185!
Task 185 requirement is not satisfied
Process Task 187!
Task 187 requirement is not satisfied
Process Task 189!
Task 189 requirement is not satisfied
Process Task   4!
Task   4 requirement is not satisfied
Process Task   2!
Task   2 start
Process Task   0!
Task   0 start
Process Task 133!
Task 133 requirement is not satisfied
Process Task 135!
Task 135 requirement is not satisfied
Process Task 137!
Task 137 requirement is not satisfied
Process Task 139!
Task 139 requirement is not satisfied
Process Task 141!
Task 141 requirement is not satisfied
Process Task 185!
Task 185 requirement is not satisfied
Process Task 187!
Task 187 requirement is not satisfied
Process Task 189!
Task 189 requirement is not satisfied
Process Task   4!
Task   4 start
Process Task   2!
Task   2 start
Process Task   0!
Task   0 start
Process Task 133!
Task 133 requirement is not satisfied
Process Task 135!
Task 135 requirement is not satisfied
Process Task 137!
Task 137 requirement is not satisfied
Process Task 139!
Task 139 requirement is not satisfied
Process Task 141!
Task 141 requirement is not satisfied
Process Task 185!
Task 185 requirement is not satisfied
Process Task 187!
Task 187 requirement is not satisfied
Process Task 189!
Task 189 requirement is not satisfied
Process Task   4!
Task   4 start
Process Task   2!
Task   2 start
Process Task   0!
Task   0 start
Process Task 133!
Task 133 requirement is not satisfied
Process Task 135!
Task 135 requirement is not satisfied
Process Task 137!
Task 137 requirement is not satisfied
Process Task 139!
Task 139 requirement is not satisfied
Process Task 141!
Task 141 requirement is not satisfied
Process Task 185!
Task 185 requirement is not satisfied
Process Task 187!
Task 187 requirement is not satisfied
Process Task 189!
Task 189 requirement is not satisfied
Process Task   4!
Task   4 start
Process Task   2!
Task   2 start
Process Task   0!
Task   0 start
Process Task 133!
Task 133 requirement is not satisfied
Process Task 135!
Task 135 requirement is not satisfied
Process Task 137!
Task 137 requirement is not satisfied
Process Task 139!
Task 139 requirement is not satisfied
Process Task 141!
Task 141 requirement is not satisfied
Process Task 185!
Task 185 requirement is not satisfied
Process Task 187!
Task 187 requirement is not satisfied
Process Task 189!
Task 189 requirement is not satisfied
Process Task   4!
Task   4 start
Process Task   2!
Task   2 start
Process Task   0!
Task   0 start
Process Task 133!
Task 133 requirement is not satisfied
Process Task 135!
Task 135 requirement is not satisfied
Process Task 137!
Task 137 requirement is not satisfied
Process Task 139!
Task 139 requirement is not satisfied
Process Task 141!
Task 141 requirement is not satisfied
Process Task 185!
Task 185 requirement is not satisfied
Process Task 187!
Task 187 requirement is not satisfied
Process Task 189!
Task 189 requirement is not satisfied
Process Task   4!
Task   4 start
Process Task   2!
Task   2 start
Process Task   0!
Task   0 start
Process Task 133!
Task 133 requirement is not satisfied
Process Task 135!
Task 135 requirement is not satisfied
Process Task 137!
Task 137 requirement is not satisfied
Process Task 139!
Task 139 requirement is not satisfied
Process Task 141!
Task 141 requirement is not satisfied
Process Task 185!
Task 185 requirement is not satisfied
Process Task 187!
Task 187 requirement is not satisfied
Process Task 189!
Task 189 requirement is not satisfied
Process Task   4!
Task   4 requirement is not satisfied
Process Task   2!
Task   2 start
Process Task   0!
Task   0 start
Process Task 133!
Task 133 requirement is not satisfied
Process Task 135!
Task 135 requirement is not satisfied
Process Task 137!
Task 137 requirement is not satisfied
Process Task 139!
Task 139 requirement is not satisfied
Process Task 141!
Task 141 requirement is not satisfied
Process Task 185!
Task 185 requirement is not satisfied
Process Task 187!
Task 187 requirement is not satisfied
Process Task 189!
Task 189 requirement is not satisfied
Process Task   4!
Task   4 start
Process Task   2!
Task   2 start
Process Task   0!
Task   0 start
Process Task 133!
Task 133 requirement is not satisfied
Process Task 135!
Task 135 requirement is not satisfied
Process Task 137!
Task 137 requirement is not satisfied
Process Task 139!
Task 139 requirement is not satisfied
Process Task 141!
Task 141 requirement is not satisfied
Process Task 185!
Task 185 requirement is not satisfied
Process Task 187!
Task 187 requirement is not satisfied
Process Task 189!
Task 189 requirement is not satisfied
Process Task   4!
Task   4 requirement is not satisfied
Process Task   2!
Task   2 start
Process Task   0!
Task   0 start
Process Task 133!
Task 133 requirement is not satisfied
Process Task 135!
Task 135 requirement is not satisfied
Process Task 137!
Task 137 requirement is not satisfied
Process Task 139!
Task 139 requirement is not satisfied
Process Task 141!
Task 141 requirement is not satisfied
Process Task 185!
Task 185 requirement is not satisfied
Process Task 187!
Task 187 requirement is not satisfied
Process Task 189!
Task 189 requirement is not satisfied
Process Task   4!
Task   4 start
Process Task   2!
Task   2 start
Process Task   0!
Task   0 start
Process Task 133!
Task 133 requirement is not satisfied
Process Task 135!
Task 135 requirement is not satisfied
Process Task 137!
Task 137 requirement is not satisfied
Process Task 139!
Task 139 requirement is not satisfied
Process Task 141!
Task 141 requirement is not satisfied
Process Task 185!
Task 185 requirement is not satisfied
Process Task 187!
Task 187 requirement is not satisfied
Process Task 189!
Task 189 requirement is not satisfied
Process Task   4!
Task   4 start
Process Task   2!
Task   2 start
Process Task   0!
Task   0 start
Process Task 133!
Task 133 requirement is not satisfied
Process Task 135!
Task 135 requirement is not satisfied
Process Task 137!
Task 137 requirement is not satisfied
Process Task 139!
Task 139 requirement is not satisfied
Process Task 141!
Task 141 requirement is not satisfied
Process Task 185!
Task 185 requirement is not satisfied
Process Task 187!
Task 187 requirement is not satisfied
Process Task 189!
Task 189 requirement is not satisfied
Process Task   4!
Task   4 start
Process Task   2!
Task   2 start
Process Task   0!
Task   0 start
Process Task 133!
Task 133 requirement is not satisfied
Process Task 135!
Task 135 requirement is not satisfied
Process Task 137!
Task 137 requirement is not satisfied
Process Task 139!
Task 139 requirement is not satisfied
Process Task 141!
Task 141 requirement is not satisfied
Process Task 185!
Task 185 requirement is not satisfied
Process Task 187!
Task 187 requirement is not satisfied
Process Task 189!
Task 189 requirement is not satisfied
Process Task   4!
Task   4 requirement is not satisfied
Process Task   2!
Task   2 start
Process Task   0!
Task   0 start
Process Task 133!
Task 133 requirement is not satisfied
Process Task 135!
Task 135 requirement is not satisfied
Process Task 137!
Task 137 requirement is not satisfied
Process Task 139!
Task 139 requirement is not satisfied
Process Task 141!
Task 141 requirement is not satisfied
Process Task 185!
Task 185 requirement is not satisfied
Process Task 187!
Task 187 requirement is not satisfied
Process Task 189!
Task 189 requirement is not satisfied
Process Task   4!
Task   4 start
Process Task   2!
Task   2 start
Process Task   0!
Task   0 start
Process Task 133!
Task 133 requirement is not satisfied
Process Task 135!
Task 135 requirement is not satisfied
Process Task 137!
Task 137 requirement is not satisfied
Process Task 139!
Task 139 requirement is not satisfied
Process Task 141!
Task 141 requirement is not satisfied
Process Task 185!
Task 185 requirement is not satisfied
Process Task 187!
Task 187 requirement is not satisfied
Process Task 189!
Task 189 requirement is not satisfied
Process Task   4!
Task   4 start
Process Task   2!
Task   2 start
Process Task   0!
Task   0 start
Process Task 133!
Task 133 requirement is not satisfied
Process Task 135!
Task 135 requirement is not satisfied
Process Task 137!
Task 137 requirement is not satisfied
Process Task 139!
Task 139 requirement is not satisfied
Process Task 141!
Task 141 requirement is not satisfied
Process Task 185!
Task 185 requirement is not satisfied
Process Task 187!
Task 187 requirement is not satisfied
Process Task 189!
Task 189 requirement is not satisfied
Process Task   4!
Task   4 requirement is not satisfied
Process Task   2!
Task   2 start
Process Task   0!
Task   0 start
Process Task 133!
Task 133 requirement is not satisfied
Process Task 135!
Task 135 requirement is not satisfied
Process Task 137!
Task 137 requirement is not satisfied
Process Task 139!
Task 139 requirement is not satisfied
Process Task 141!
Task 141 requirement is not satisfied
Process Task 185!
Task 185 requirement is not satisfied
Process Task 187!
Task 187 requirement is not satisfied
Process Task 189!
Task 189 requirement is not satisfied
Process Task   4!
Task   4 start
Process Task   2!
Task   2 start
Process Task   0!
Task   0 start
Process Task 133!
Task 133 requirement is not satisfied
Process Task 135!
Task 135 requirement is not satisfied
Process Task 137!
Task 137 requirement is not satisfied
Process Task 139!
Task 139 requirement is not satisfied
Process Task 141!
Task 141 requirement is not satisfied
Process Task 185!
Task 185 requirement is not satisfied
Process Task 187!
Task 187 requirement is not satisfied
Process Task 189!
Task 189 requirement is not satisfied
Process Task   4!
Task   4 start
Process Task   2!
Task   2 start
Process Task   0!
Task   0 start
Process Task 133!
Task 133 requirement is not satisfied
Process Task 135!
Task 135 requirement is not satisfied
Process Task 137!
Task 137 requirement is not satisfied
Process Task 139!
Task 139 requirement is not satisfied
Process Task 141!
Task 141 requirement is not satisfied
Process Task 185!
Task 185 requirement is not satisfied
Process Task 187!
Task 187 requirement is not satisfied
Process Task 189!
Task 189 requirement is not satisfied
Process Task   4!
Task   4 start
Process Task   2!
Task   2 start
Process Task   0!
Task   0 start
Process Task 133!
Task 133 requirement is not satisfied
Process Task 135!
Task 135 requirement is not satisfied
Process Task 137!
Task 137 requirement is not satisfied
Process Task 139!
Task 139 requirement is not satisfied
Process Task 141!
Task 141 requirement is not satisfied
Process Task 185!
Task 185 requirement is not satisfied
Process Task 187!
Task 187 requirement is not satisfied
Process Task 189!
Task 189 requirement is not satisfied
Process Task   4!
Task   4 start
Process Task   2!
Task   2 start
Process Task   0!
Task   0 start
Process Task 133!
Task 133 requirement is not satisfied
Process Task 135!
Task 135 requirement is not satisfied
Process Task 137!
Task 137 requirement is not satisfied
Process Task 139!
Task 139 requirement is not satisfied
Process Task 141!
Task 141 requirement is not satisfied
Process Task 185!
Task 185 requirement is not satisfied
Process Task 187!
Task 187 requirement is not satisfied
Process Task 189!
Task 189 requirement is not satisfied
Process Task   4!
Task   4 requirement is not satisfied
Process Task   2!
Task   2 start
Process Task   0!
Task   0 start
Process Task 133!
Task 133 requirement is not satisfied
Process Task 135!
Task 135 requirement is not satisfied
Process Task 137!
Task 137 requirement is not satisfied
Process Task 139!
Task 139 requirement is not satisfied
Process Task 141!
Task 141 requirement is not satisfied
Process Task 185!
Task 185 requirement is not satisfied
Process Task 187!
Task 187 requirement is not satisfied
Process Task 189!
Task 189 requirement is not satisfied
Process Task   4!
Task   4 start
Process Task   2!
Task   2 start
Process Task   0!
Task   0 start
Process Task 133!
Task 133 requirement is not satisfied
Process Task 135!
Task 135 requirement is not satisfied
Process Task 137!
Task 137 requirement is not satisfied
Process Task 139!
Task 139 requirement is not satisfied
Process Task 141!
Task 141 requirement is not satisfied
Process Task 185!
Task 185 requirement is not satisfied
Process Task 187!
Task 187 requirement is not satisfied
Process Task 189!
Task 189 requirement is not satisfied
Process Task   4!
Task   4 start
Process Task   2!
Task   2 start
Process Task   0!
Task   0 start
Process Task 133!
Task 133 requirement is not satisfied
Process Task 135!
Task 135 requirement is not satisfied
Process Task 137!
Task 137 requirement is not satisfied
Process Task 139!
Task 139 requirement is not satisfied
Process Task 141!
Task 141 requirement is not satisfied
Process Task 185!
Task 185 requirement is not satisfied
Process Task 187!
Task 187 requirement is not satisfied
Process Task 189!
Task 189 requirement is not satisfied
Process Task   4!
Task   4 start
Process Task   2!
Task   2 start
Process Task   0!
Task   0 start
Process Task 133!
Task 133 requirement is not satisfied
Process Task 135!
Task 135 requirement is not satisfied
Process Task 137!
Task 137 requirement is not satisfied
Process Task 139!
Task 139 requirement is not satisfied
Process Task 141!
Task 141 requirement is not satisfied
Process Task 185!
Task 185 requirement is not satisfied
Process Task 187!
Task 187 requirement is not satisfied
Process Task 189!
Task 189 requirement is not satisfied
Process Task   4!
Task   4 requirement is not satisfied
Process Task   2!
Task   2 start
Process Task   0!
Task   0 start
Process Task 133!
Task 133 requirement is not satisfied
Process Task 135!
Task 135 requirement is not satisfied
Process Task 137!
Task 137 requirement is not satisfied
Process Task 139!
Task 139 requirement is not satisfied
Process Task 141!
Task 141 requirement is not satisfied
Process Task 185!
Task 185 requirement is not satisfied
Process Task 187!
Task 187 requirement is not satisfied
Process Task 189!
Task 189 requirement is not satisfied
Process Task   4!
Task   4 start
Process Task   2!
Task   2 start
Process Task   0!
Task   0 start
Process Task 133!
Task 133 requirement is not satisfied
Process Task 135!
Task 135 requirement is not satisfied
Process Task 137!
Task 137 requirement is not satisfied
Process Task 139!
Task 139 requirement is not satisfied
Process Task 141!
Task 141 requirement is not satisfied
Process Task 185!
Task 185 requirement is not satisfied
Process Task 187!
Task 187 requirement is not satisfied
Process Task 189!
Task 189 requirement is not satisfied
Process Task   4!
Task   4 start
Process Task   2!
Task   2 start
Process Task   0!
Task   0 start
Process Task 133!
Task 133 requirement is not satisfied
Process Task 135!
Task 135 requirement is not satisfied
Process Task 137!
Task 137 requirement is not satisfied
Process Task 139!
Task 139 requirement is not satisfied
Process Task 141!
Task 141 requirement is not satisfied
Process Task 185!
Task 185 requirement is not satisfied
Process Task 187!
Task 187 requirement is not satisfied
Process Task 189!
Task 189 requirement is not satisfied
Process Task   4!
Task   4 requirement is not satisfied
Process Task   2!
Task   2 start
Process Task   0!
Task   0 start
Process Task 133!
Task 133 requirement is not satisfied
Process Task 135!
Task 135 requirement is not satisfied
Process Task 137!
Task 137 requirement is not satisfied
Process Task 139!
Task 139 requirement is not satisfied
Process Task 141!
Task 141 requirement is not satisfied
Process Task 185!
Task 185 requirement is not satisfied
Process Task 187!
Task 187 requirement is not satisfied
Process Task 189!
Task 189 requirement is not satisfied
Process Task   4!
Task   4 requirement is not satisfied
Process Task   2!
Task   2 start
Process Task   0!
Task   0 start
Process Task 133!
Task 133 requirement is not satisfied
Process Task 135!
Task 135 requirement is not satisfied
Process Task 137!
Task 137 requirement is not satisfied
Process Task 139!
Task 139 requirement is not satisfied
Process Task 141!
Task 141 requirement is not satisfied
Process Task 185!
Task 185 requirement is not satisfied
Process Task 187!
Task 187 requirement is not satisfied
Process Task 189!
Task 189 requirement is not satisfied
Process Task   4!
Task   4 start
Process Task   2!
Task   2 start
Process Task   0!
Task   0 start
Process Task 133!
Task 133 requirement is not satisfied
Process Task 135!
Task 135 requirement is not satisfied
Process Task 137!
Task 137 requirement is not satisfied
Process Task 139!
Task 139 requirement is not satisfied
Process Task 141!
Task 141 requirement is not satisfied
Process Task 185!
Task 185 requirement is not satisfied
Process Task 187!
Task 187 requirement is not satisfied
Process Task 189!
Task 189 requirement is not satisfied
Process Task   4!
Task   4 start
Process Task   2!
Task   2 start
Process Task   0!
Task   0 start
Process Task 133!
Task 133 requirement is not satisfied
Process Task 135!
Task 135 requirement is not satisfied
Process Task 137!
Task 137 requirement is not satisfied
Process Task 139!
Task 139 requirement is not satisfied
Process Task 141!
Task 141 requirement is not satisfied
Process Task 185!
Task 185 requirement is not satisfied
Process Task 187!
Task 187 requirement is not satisfied
Process Task 189!
Task 189 requirement is not satisfied
Process Task   4!
Task   4 start
Process Task   2!
Task   2 start
Process Task   0!
Task   0 start
Process Task 133!
Task 133 requirement is not satisfied
Process Task 135!
Task 135 requirement is not satisfied
Process Task 137!
Task 137 requirement is not satisfied
Process Task 139!
Task 139 requirement is not satisfied
Process Task 141!
Task 141 requirement is not satisfied
Process Task 185!
Task 185 requirement is not satisfied
Process Task 187!
Task 187 requirement is not satisfied
Process Task 189!
Task 189 requirement is not satisfied
Process Task   4!
Task   4 requirement is not satisfied
Process Task   2!
Task   2 start
Process Task   0!
Task   0 start
Process Task 133!
Task 133 requirement is not satisfied
Process Task 135!
Task 135 requirement is not satisfied
Process Task 137!
Task 137 requirement is not satisfied
Process Task 139!
Task 139 requirement is not satisfied
Process Task 141!
Task 141 requirement is not satisfied
Process Task 185!
Task 185 requirement is not satisfied
Process Task 187!
Task 187 requirement is not satisfied
Process Task 189!
Task 189 requirement is not satisfied
Process Task   4!
Task   4 start
Process Task   2!
Task   2 start
Process Task   0!
Task   0 start
Process Task 133!
Task 133 requirement is not satisfied
Process Task 135!
Task 135 requirement is not satisfied
Process Task 137!
Task 137 requirement is not satisfied
Process Task 139!
Task 139 requirement is not satisfied
Process Task 141!
Task 141 requirement is not satisfied
Process Task 185!
Task 185 requirement is not satisfied
Process Task 187!
Task 187 requirement is not satisfied
Process Task 189!
Task 189 requirement is not satisfied
Process Task   4!
Task   4 start
Process Task   2!
Task   2 start
Process Task   0!
Task   0 start
Process Task 133!
Task 133 requirement is not satisfied
Process Task 135!
Task 135 requirement is not satisfied
Process Task 137!
Task 137 requirement is not satisfied
Process Task 139!
Task 139 requirement is not satisfied
Process Task 141!
Task 141 requirement is not satisfied
Process Task 185!
Task 185 requirement is not satisfied
Process Task 187!
Task 187 requirement is not satisfied
Process Task 189!
Task 189 requirement is not satisfied
Process Task   4!
Task   4 requirement is not satisfied
Process Task   2!
Task   2 start
Process Task   0!
Task   0 start
Process Task 133!
Task 133 requirement is not satisfied
Process Task 135!
Task 135 requirement is not satisfied
Process Task 137!
Task 137 requirement is not satisfied
Process Task 139!
Task 139 requirement is not satisfied
Process Task 141!
Task 141 requirement is not satisfied
Process Task 185!
Task 185 requirement is not satisfied
Process Task 187!
Task 187 requirement is not satisfied
Process Task 189!
Task 189 requirement is not satisfied
Process Task   4!
Task   4 start
Process Task   2!
Task   2 start
Process Task   0!
Task   0 start
Process Task 133!
Task 133 requirement is not satisfied
Process Task 135!
Task 135 requirement is not satisfied
Process Task 137!
Task 137 requirement is not satisfied
Process Task 139!
Task 139 requirement is not satisfied
Process Task 141!
Task 141 requirement is not satisfied
Process Task 185!
Task 185 requirement is not satisfied
Process Task 187!
Task 187 requirement is not satisfied
Process Task 189!
Task 189 requirement is not satisfied
Process Task   4!
Task   4 start
Process Task   2!
Task   2 start
Process Task   0!
Task   0 start
Process Task 133!
Task 133 requirement is not satisfied
Process Task 135!
Task 135 requirement is not satisfied
Process Task 137!
Task 137 requirement is not satisfied
Process Task 139!
Task 139 requirement is not satisfied
Process Task 141!
Task 141 requirement is not satisfied
Process Task 185!
Task 185 requirement is not satisfied
Process Task 187!
Task 187 requirement is not satisfied
Process Task 189!
Task 189 requirement is not satisfied
Process Task   4!
Task   4 requirement is not satisfied
Process Task   2!
Task   2 start
Process Task   0!
Task   0 start
Process Task 133!
Task 133 requirement is not satisfied
Process Task 135!
Task 135 requirement is not satisfied
Process Task 137!
Task 137 requirement is not satisfied
Process Task 139!
Task 139 requirement is not satisfied
Process Task 141!
Task 141 requirement is not satisfied
Process Task 185!
Task 185 requirement is not satisfied
Process Task 187!
Task 187 requirement is not satisfied
Process Task 189!
Task 189 requirement is not satisfied
Process Task   4!
Task   4 requirement is not satisfied
Process Task   2!
Task   2 start
Process Task   0!
Task   0 start
Process Task 133!
Task 133 requirement is not satisfied
Process Task 135!
Task 135 requirement is not satisfied
Process Task 137!
Task 137 requirement is not satisfied
Process Task 139!
Task 139 requirement is not satisfied
Process Task 141!
Task 141 requirement is not satisfied
Process Task 185!
Task 185 requirement is not satisfied
Process Task 187!
Task 187 requirement is not satisfied
Process Task 189!
Task 189 requirement is not satisfied
Process Task   4!
Task   4 start
Process Task   2!
Task   2 start
Process Task   0!
Task   0 start
Process Task 133!
Task 133 requirement is not satisfied
Process Task 135!
Task 135 requirement is not satisfied
Process Task 137!
Task 137 requirement is not satisfied
Process Task 139!
Task 139 requirement is not satisfied
Process Task 141!
Task 141 requirement is not satisfied
Process Task 185!
Task 185 requirement is not satisfied
Process Task 187!
Task 187 requirement is not satisfied
Process Task 189!
Task 189 requirement is not satisfied
Process Task   4!
Task   4 requirement is not satisfied
Process Task   2!
Task   2 start
Process Task   0!
Task   0 start
Process Task 133!
Task 133 requirement is not satisfied
Process Task 135!
Task 135 requirement is not satisfied
Process Task 137!
Task 137 requirement is not satisfied
Process Task 139!
Task 139 requirement is not satisfied
Process Task 141!
Task 141 requirement is not satisfied
Process Task 185!
Task 185 requirement is not satisfied
Process Task 187!
Task 187 requirement is not satisfied
Process Task 189!
Task 189 requirement is not satisfied
Process Task   4!
Task   4 start
Process Task   2!
Task   2 start
Process Task   0!
Task   0 start
Process Task 133!
Task 133 requirement is not satisfied
Process Task 135!
Task 135 requirement is not satisfied
Process Task 137!
Task 137 requirement is not satisfied
Process Task 139!
Task 139 requirement is not satisfied
Process Task 141!
Task 141 requirement is not satisfied
Process Task 185!
Task 185 requirement is not satisfied
Process Task 187!
Task 187 requirement is not satisfied
Process Task 189!
Task 189 requirement is not satisfied
Process Task   4!
Task   4 requirement is not satisfied
Process Task   2!
Task   2 start
Process Task   0!
Task   0 start
Process Task 133!
Task 133 requirement is not satisfied
Process Task 135!
Task 135 requirement is not satisfied
Process Task 137!
Task 137 requirement is not satisfied
Process Task 139!
Task 139 requirement is not satisfied
Process Task 141!
Task 141 requirement is not satisfied
Process Task 185!
Task 185 requirement is not satisfied
Process Task 187!
Task 187 requirement is not satisfied
Process Task 189!
Task 189 requirement is not satisfied
Process Task   4!
Task   4 start
Process Task   2!
Task   2 start
Process Task   0!
Task   0 start
Process Task 133!
Task 133 requirement is not satisfied
Process Task 135!
Task 135 requirement is not satisfied
Process Task 137!
Task 137 requirement is not satisfied
Process Task 139!
Task 139 requirement is not satisfied
Process Task 141!
Task 141 requirement is not satisfied
Process Task 185!
Task 185 requirement is not satisfied
Process Task 187!
Task 187 requirement is not satisfied
Process Task 189!
Task 189 requirement is not satisfied
Process Task   4!
Task   4 requirement is not satisfied
Process Task   2!
Task   2 start
Process Task   0!
Task   0 start
Process Task 133!
Task 133 requirement is not satisfied
Process Task 135!
[...]
Process Task 135!
Task 135 requirement is not satisfied
Process Task 137!
Task 137 requirement is not satisfied
Process Task 139!
Task 139 requirement is not satisfied
Process Task 141!
Task 141 requirement is not satisfied
Process Task 185!
Task 185 requirement is not satisfied
Process Task 187!
Task 187 requirement is not satisfied
Process Task 189!
Task 189 requirement is not satisfied
Process Task   4!
Task   4 start
Process Task   2!
Task   2 start
Process Task   0!
Task   0 start
Process Task 133!
Task 133 requirement is not satisfied
Process Task 135!
Task 135 requirement is not satisfied
Process Task 137!
Task 137 requirement is not satisfied
Process Task 139!
Task 139 requirement is not satisfied
Process Task 141!
Task 141 requirement is not satisfied
Process Task 185!
Task 185 requirement is not satisfied
Process Task 187!
Task 187 requirement is not satisfied
Process Task 189!
Task 189 requirement is not satisfied
Process Task   4!
Task   4 start
Process Task   2!
Task   2 start
Process Task   0!
Task   0 start
Process Task 133!
Task 133 requirement is not satisfied
Process Task 135!
Task 135 requirement is not satisfied
Process Task 137!
Task 137 requirement is not satisfied
Process Task 139!
Task 139 requirement is not satisfied
Process Task 141!
Task 141 requirement is not satisfied
Process Task 185!
Task 185 requirement is not satisfied
Process Task 187!
Task 187 requirement is not satisfied
Process Task 189!
Task 189 requirement is not satisfied
Process Task   4!
Task   4 requirement is not satisfied
Process Task   2!
Task   2 start
Process Task   0!
Task   0 start
Process Task 133!
Task 133 requirement is not satisfied
Process Task 135!
Task 135 requirement is not satisfied
Process Task 137!
Task 137 requirement is not satisfied
Process Task 139!
Task 139 requirement is not satisfied
Process Task 141!
Task 141 requirement is not satisfied
Process Task 185!
Task 185 requirement is not satisfied
Process Task 187!
Task 187 requirement is not satisfied
Process Task 189!
Task 189 requirement is not satisfied
Process Task   4!
Task   4 start
Process Task   2!
Task   2 start
Process Task   0!
Task   0 start
Process Task 133!
Task 133 requirement is not satisfied
Process Task 135!
Task 135 requirement is not satisfied
Process Task 137!
Task 137 requirement is not satisfied
Process Task 139!
Task 139 requirement is not satisfied
Process Task 141!
Task 141 requirement is not satisfied
Process Task 185!
Task 185 requirement is not satisfied
Process Task 187!
Task 187 requirement is not satisfied
Process Task 189!
Task 189 requirement is not satisfied
Process Task   4!
Task   4 start
Process Task   2!
Task   2 start
Process Task   0!
Task   0 start
Process Task 133!
Task 133 requirement is not satisfied
Process Task 135!
Task 135 requirement is not satisfied
Process Task 137!
Task 137 requirement is not satisfied
Process Task 139!
Task 139 requirement is not satisfied
Process Task 141!
Task 141 requirement is not satisfied
Process Task 185!
Task 185 requirement is not satisfied
Process Task 187!
Task 187 requirement is not satisfied
Process Task 189!
Task 189 requirement is not satisfied
Process Task   4!
Task   4 requirement is not satisfied
Process Task   2!
Task   2 start
Process Task   0!
Task   0 start
Process Task 133!
Task 133 requirement is not satisfied
Process Task 135!
Task 135 requirement is not satisfied
Process Task 137!
Task 137 requirement is not satisfied
Process Task 139!
Task 139 requirement is not satisfied
Process Task 141!
Task 141 requirement is not satisfied
Process Task 185!
Task 185 requirement is not satisfied
Process Task 187!
Task 187 requirement is not satisfied
Process Task 189!
Task 189 requirement is not satisfied
Process Task   4!
Task   4 requirement is not satisfied
Process Task   2!
Task   2 start
Process Task   0!
Task   0 start
Process Task 133!
Task 133 requirement is not satisfied
Process Task 135!
Task 135 requirement is not satisfied
Process Task 137!
Task 137 requirement is not satisfied
Process Task 139!
Task 139 requirement is not satisfied
Process Task 141!
Task 141 requirement is not satisfied
Process Task 185!
Task 185 requirement is not satisfied
Process Task 187!
Task 187 requirement is not satisfied
Process Task 189!
Task 189 requirement is not satisfied
Process Task   4!
Task   4 start
Process Task   2!
Task   2 start
Process Task   0!
Task   0 start
Process Task 133!
Task 133 requirement is not satisfied
Process Task 135!
Task 135 requirement is not satisfied
Process Task 137!
Task 137 requirement is not satisfied
Process Task 139!
Task 139 requirement is not satisfied
Process Task 141!
Task 141 requirement is not satisfied
Process Task 185!
Task 185 requirement is not satisfied
Process Task 187!
Task 187 requirement is not satisfied
Process Task 189!
Task 189 requirement is not satisfied
Process Task   4!
Task   4 requirement is not satisfied
Process Task   2!
Task   2 start
Process Task   0!
Task   0 start
Process Task 133!
Task 133 requirement is not satisfied
Process Task 135!
Task 135 requirement is not satisfied
Process Task 137!
Task 137 requirement is not satisfied
Process Task 139!
Task 139 requirement is not satisfied
Process Task 141!
Task 141 requirement is not satisfied
Process Task 185!
Task 185 requirement is not satisfied
Process Task 187!
Task 187 requirement is not satisfied
Process Task 189!
Task 189 requirement is not satisfied
Process Task   4!
Task   4 start
Process Task   2!
Task   2 start
Process Task   0!
Task   0 start
Process Task 133!
Task 133 requirement is not satisfied
Process Task 135!
Task 135 requirement is not satisfied
Process Task 137!
Task 137 requirement is not satisfied
Process Task 139!
Task 139 requirement is not satisfied
Process Task 141!
Task 141 requirement is not satisfied
Process Task 185!
Task 185 requirement is not satisfied
Process Task 187!
Task 187 requirement is not satisfied
Process Task 189!
Task 189 requirement is not satisfied
Process Task   4!
Task   4 start
Process Task   2!
Task   2 start
Process Task   0!
Task   0 start
Process Task 133!
Task 133 requirement is not satisfied
Process Task 135!
Task 135 requirement is not satisfied
Process Task 137!
Task 137 requirement is not satisfied
Process Task 139!
Task 139 requirement is not satisfied
Process Task 141!
Task 141 requirement is not satisfied
Process Task 185!
Task 185 requirement is not satisfied
Process Task 187!
Task 187 requirement is not satisfied
Process Task 189!
Task 189 requirement is not satisfied
Process Task   4!
Task   4 start
Process Task   2!
Task   2 start
Process Task   0!
Task   0 start
Process Task 133!
Task 133 requirement is not satisfied
Process Task 135!
Task 135 requirement is not satisfied
Process Task 137!
Task 137 requirement is not satisfied
Process Task 139!
Task 139 requirement is not satisfied
Process Task 141!
Task 141 requirement is not satisfied
Process Task 185!
Task 185 requirement is not satisfied
Process Task 187!
Task 187 requirement is not satisfied
Process Task 189!
Task 189 requirement is not satisfied
Process Task   4!
Task   4 start
Process Task   2!
Task   2 start
Process Task   0!
Task   0 start
Process Task 133!
Task 133 requirement is not satisfied
Process Task 135!
Task 135 requirement is not satisfied
Process Task 137!
Task 137 requirement is not satisfied
Process Task 139!
Task 139 requirement is not satisfied
Process Task 141!
Task 141 requirement is not satisfied
Process Task 185!
Task 185 requirement is not satisfied
Process Task 187!
Task 187 requirement is not satisfied
Process Task 189!
Task 189 requirement is not satisfied
Process Task   4!
Task   4 start
Process Task   2!
Task   2 start
Process Task   0!
Task   0 start
Process Task 133!
Task 133 requirement is not satisfied
Process Task 135!
Task 135 requirement is not satisfied
Process Task 137!
Task 137 requirement is not satisfied
Process Task 139!
Task 139 requirement is not satisfied
Process Task 141!
Task 141 requirement is not satisfied
Process Task 185!
Task 185 requirement is not satisfied
Process Task 187!
Task 187 requirement is not satisfied
Process Task 189!
Task 189 requirement is not satisfied
Process Task   4!
Task   4 start
Process Task   2!
Task   2 start
Process Task   0!
Task   0 start
Process Task 133!
Task 133 requirement is not satisfied
Process Task 135!
Task 135 requirement is not satisfied
Process Task 137!
Task 137 requirement is not satisfied
Process Task 139!
Task 139 requirement is not satisfied
Process Task 141!
Task 141 requirement is not satisfied
Process Task 185!
Task 185 requirement is not satisfied
Process Task 187!
Task 187 requirement is not satisfied
Process Task 189!
Task 189 requirement is not satisfied
Process Task   4!
Task   4 start
Process Task   2!
Task   2 start
Process Task   0!
Task   0 start
Process Task 133!
Task 133 requirement is not satisfied
Process Task 135!
Task 135 requirement is not satisfied
Process Task 137!
Task 137 requirement is not satisfied
Process Task 139!
Task 139 requirement is not satisfied
Process Task 141!
Task 141 requirement is not satisfied
Process Task 185!
Task 185 requirement is not satisfied
Process Task 187!
Task 187 requirement is not satisfied
Process Task 189!
Task 189 requirement is not satisfied
Process Task   4!
Task   4 requirement is not satisfied
Process Task   2!
Task   2 start
Process Task   0!
Task   0 start
Process Task 133!
Task 133 requirement is not satisfied
Process Task 135!
Task 135 requirement is not satisfied
Process Task 137!
Task 137 requirement is not satisfied
Process Task 139!
Task 139 requirement is not satisfied
Process Task 141!
Task 141 requirement is not satisfied
Process Task 185!
Task 185 requirement is not satisfied
Process Task 187!
Task 187 requirement is not satisfied
Process Task 189!
Task 189 requirement is not satisfied
Process Task   4!
Task   4 start
Process Task   2!
Task   2 start
Process Task   0!
Task   0 start
Process Task 133!
Task 133 requirement is not satisfied
Process Task 135!
Task 135 requirement is not satisfied
Process Task 137!
Task 137 requirement is not satisfied
Process Task 139!
Task 139 requirement is not satisfied
Process Task 141!
Task 141 requirement is not satisfied
Process Task 185!
Task 185 requirement is not satisfied
Process Task 187!
Task 187 requirement is not satisfied
Process Task 189!
Task 189 requirement is not satisfied
Process Task   4!
Task   4 requirement is not satisfied
Process Task   2!
Task   2 start
Process Task   0!
Task   0 start
Process Task 133!
Task 133 requirement is not satisfied
Process Task 135!
Task 135 requirement is not satisfied
Process Task 137!
Task 137 requirement is not satisfied
Process Task 139!
Task 139 requirement is not satisfied
Process Task 141!
Task 141 requirement is not satisfied
Process Task 185!
Task 185 requirement is not satisfied
Process Task 187!
Task 187 requirement is not satisfied
Process Task 189!
Task 189 requirement is not satisfied
Process Task   4!
Task   4 requirement is not satisfied
Process Task   2!
Task   2 start
Process Task   0!
Task   0 start
Process Task 133!
Task 133 requirement is not satisfied
Process Task 135!
Task 135 requirement is not satisfied
Process Task 137!
Task 137 requirement is not satisfied
Process Task 139!
Task 139 requirement is not satisfied
Process Task 141!
Task 141 requirement is not satisfied
Process Task 185!
Task 185 requirement is not satisfied
Process Task 187!
Task 187 requirement is not satisfied
Process Task 189!
Task 189 requirement is not satisfied
Process Task   4!
Task   4 start
Process Task   2!
Task   2 start
Process Task   0!
Task   0 start
Process Task 133!
Task 133 requirement is not satisfied
Process Task 135!
Task 135 requirement is not satisfied
Process Task 137!
Task 137 requirement is not satisfied
Process Task 139!
Task 139 requirement is not satisfied
Process Task 141!
Task 141 requirement is not satisfied
Process Task 185!
Task 185 requirement is not satisfied
Process Task 187!
Task 187 requirement is not satisfied
Process Task 189!
Task 189 requirement is not satisfied
Process Task   4!
Task   4 start
Process Task   2!
Task   2 start
Process Task   0!
Task   0 start
Process Task 133!
Task 133 requirement is not satisfied
Process Task 135!
Task 135 requirement is not satisfied
Process Task 137!
Task 137 requirement is not satisfied
Process Task 139!
Task 139 requirement is not satisfied
Process Task 141!
Task 141 requirement is not satisfied
Process Task 185!
Task 185 requirement is not satisfied
Process Task 187!
Task 187 requirement is not satisfied
Process Task 189!
Task 189 requirement is not satisfied
Process Task   4!
Task   4 requirement is not satisfied
Process Task   2!
Task   2 start
Process Task   0!
Task   0 start
Process Task 133!
Task 133 requirement is not satisfied
Process Task 135!
Task 135 requirement is not satisfied
Process Task 137!
Task 137 requirement is not satisfied
Process Task 139!
Task 139 requirement is not satisfied
Process Task 141!
Task 141 requirement is not satisfied
Process Task 185!
Task 185 requirement is not satisfied
Process Task 187!
Task 187 requirement is not satisfied
Process Task 189!
Task 189 requirement is not satisfied
Process Task   4!
Task   4 start
Process Task   2!
Task   2 start
Process Task   0!
Task   0 start
Process Task 133!
Task 133 requirement is not satisfied
Process Task 135!
Task 135 requirement is not satisfied
Process Task 137!
Task 137 requirement is not satisfied
Process Task 139!
Task 139 requirement is not satisfied
Process Task 141!
Task 141 requirement is not satisfied
Process Task 185!
Task 185 requirement is not satisfied
Process Task 187!
Task 187 requirement is not satisfied
Process Task 189!
Task 189 requirement is not satisfied
Process Task   4!
Task   4 start
Process Task   2!
Task   2 start
Process Task   0!
Task   0 start
Process Task 133!
Task 133 requirement is not satisfied
Process Task 135!
Task 135 requirement is not satisfied
Process Task 137!
Task 137 requirement is not satisfied
Process Task 139!
Task 139 requirement is not satisfied
Process Task 141!
Task 141 requirement is not satisfied
Process Task 185!
Task 185 requirement is not satisfied
Process Task 187!
Task 187 requirement is not satisfied
Process Task 189!
Task 189 requirement is not satisfied
Process Task   4!
Task   4 start
Process Task   2!
Task   2 start
Process Task   0!
Task   0 start
Process Task 133!
Task 133 requirement is not satisfied
Process Task 135!
Task 135 requirement is not satisfied
Process Task 137!
Task 137 requirement is not satisfied
Process Task 139!
Task 139 requirement is not satisfied
Process Task 141!
Task 141 requirement is not satisfied
Process Task 185!
Task 185 requirement is not satisfied
Process Task 187!
Task 187 requirement is not satisfied
Process Task 189!
Task 189 requirement is not satisfied
Process Task   4!
Task   4 requirement is not satisfied
Process Task   2!
Task   2 start
Process Task   0!
Task   0 start
Process Task 133!
Task 133 requirement is not satisfied
Process Task 135!
Task 135 requirement is not satisfied
Process Task 137!
Task 137 requirement is not satisfied
Process Task 139!
Task 139 requirement is not satisfied
Process Task 141!
Task 141 requirement is not satisfied
Process Task 185!
Task 185 requirement is not satisfied
Process Task 187!
Task 187 requirement is not satisfied
Process Task 189!
Task 189 requirement is not satisfied
Process Task   4!
Task   4 start
Process Task   2!
Task   2 start
Process Task   0!
Task   0 start
Process Task 133!
Task 133 requirement is not satisfied
Process Task 135!
Task 135 requirement is not satisfied
Process Task 137!
Task 137 requirement is not satisfied
Process Task 139!
Task 139 requirement is not satisfied
Process Task 141!
Task 141 requirement is not satisfied
Process Task 185!
Task 185 requirement is not satisfied
Process Task 187!
Task 187 requirement is not satisfied
Process Task 189!
Task 189 requirement is not satisfied
Process Task   4!
Task   4 start
Process Task   2!
Task   2 start
Process Task   0!
Task   0 start
Process Task 133!
Task 133 requirement is not satisfied
Process Task 135!
Task 135 requirement is not satisfied
Process Task 137!
Task 137 requirement is not satisfied
Process Task 139!
Task 139 requirement is not satisfied
Process Task 141!
Task 141 requirement is not satisfied
Process Task 185!
Task 185 requirement is not satisfied
Process Task 187!
Task 187 requirement is not satisfied
Process Task 189!
Task 189 requirement is not satisfied
Process Task   4!
Task   4 requirement is not satisfied
Process Task   2!
Task   2 start
Process Task   0!
Task   0 start
Process Task 133!
Task 133 requirement is not satisfied
Process Task 135!
Task 135 requirement is not satisfied
Process Task 137!
Task 137 requirement is not satisfied
Process Task 139!
Task 139 requirement is not satisfied
Process Task 141!
Task 141 requirement is not satisfied
Process Task 185!
Task 185 requirement is not satisfied
Process Task 187!
Task 187 requirement is not satisfied
Process Task 189!
Task 189 requirement is not satisfied
Process Task   4!
Task   4 start
Process Task   2!
Task   2 start
Process Task   0!
Task   0 start
Process Task 133!
Task 133 requirement is not satisfied
Process Task 135!
Task 135 requirement is not satisfied
Process Task 137!
Task 137 requirement is not satisfied
Process Task 139!
Task 139 requirement is not satisfied
Process Task 141!
Task 141 requirement is not satisfied
Process Task 185!
Task 185 requirement is not satisfied
Process Task 187!
Task 187 requirement is not satisfied
Process Task 189!
Task 189 requirement is not satisfied
Process Task   4!
Task   4 start
Process Task   2!
Task   2 start
Process Task   0!
Task   0 start
Process Task 133!
Task 133 requirement is not satisfied
Process Task 135!
Task 135 requirement is not satisfied
Process Task 137!
Task 137 requirement is not satisfied
Process Task 139!
Task 139 requirement is not satisfied
Process Task 141!
Task 141 requirement is not satisfied
Process Task 185!
Task 185 requirement is not satisfied
Process Task 187!
Task 187 requirement is not satisfied
Process Task 189!
Task 189 requirement is not satisfied
Process Task   4!
Task   4 start
Process Task   2!
Task   2 start
Process Task   0!
Task   0 start
Process Task 133!
Task 133 requirement is not satisfied
Process Task 135!
Task 135 requirement is not satisfied
Process Task 137!
Task 137 requirement is not satisfied
Process Task 139!
Task 139 requirement is not satisfied
Process Task 141!
Task 141 requirement is not satisfied
Process Task 185!
Task 185 requirement is not satisfied
Process Task 187!
Task 187 requirement is not satisfied
Process Task 189!
Task 189 requirement is not satisfied
Process Task   4!
Task   4 requirement is not satisfied
Process Task   2!
Task   2 start
Process Task   0!
Task   0 start
Process Task 133!
Task 133 requirement is not satisfied
Process Task 135!
Task 135 requirement is not satisfied
Process Task 137!
Task 137 requirement is not satisfied
Process Task 139!
Task 139 requirement is not satisfied
Process Task 141!
Task 141 requirement is not satisfied
Process Task 185!
Task 185 requirement is not satisfied
Process Task 187!
Task 187 requirement is not satisfied
Process Task 189!
Task 189 requirement is not satisfied
Process Task   4!
Task   4 start
Process Task   2!
Task   2 start
Process Task   0!
Task   0 start
Process Task 133!
Task 133 requirement is not satisfied
Process Task 135!
Task 135 requirement is not satisfied
Process Task 137!
Task 137 requirement is not satisfied
Process Task 139!
Task 139 requirement is not satisfied
Process Task 141!
Task 141 requirement is not satisfied
Process Task 185!
Task 185 requirement is not satisfied
Process Task 187!
Task 187 requirement is not satisfied
Process Task 189!
Task 189 requirement is not satisfied
Process Task   4!
Task   4 requirement is not satisfied
Process Task   2!
Task   2 start
Process Task   0!
Task   0 start
Exiting @ tick 38820 because user interrupt received
