
---------- Begin Simulation Statistics ----------
final_tick                                     647178                       # Number of ticks from beginning of simulation (restored from checkpoints and never reset)
host_mem_usage                                 880236                       # Number of bytes of host memory used
host_seconds                                    82.67                       # Real time elapsed on the host
host_tick_rate                                   7828                       # Simulator tick rate (ticks/s)
sim_freq                                   1000000000                       # Frequency of simulated ticks
sim_seconds                                  0.000647                       # Number of seconds simulated
sim_ticks                                      647178                       # Number of ticks simulated
system.ruby.l1_cntrl0.cacheMemory.demand_accesses            0                       # Number of cache demand accesses
system.ruby.l1_cntrl0.cacheMemory.demand_hits            0                       # Number of cache demand hits
system.ruby.l1_cntrl0.cacheMemory.demand_misses            0                       # Number of cache demand misses
system.ruby.l1_cntrl1.cacheMemory.demand_accesses            0                       # Number of cache demand accesses
system.ruby.l1_cntrl1.cacheMemory.demand_hits            0                       # Number of cache demand hits
system.ruby.l1_cntrl1.cacheMemory.demand_misses            0                       # Number of cache demand misses
system.ruby.l1_cntrl2.cacheMemory.demand_accesses            0                       # Number of cache demand accesses
system.ruby.l1_cntrl2.cacheMemory.demand_hits            0                       # Number of cache demand hits
system.ruby.l1_cntrl2.cacheMemory.demand_misses            0                       # Number of cache demand misses
system.ruby.l1_cntrl3.cacheMemory.demand_accesses            0                       # Number of cache demand accesses
system.ruby.l1_cntrl3.cacheMemory.demand_hits            0                       # Number of cache demand hits
system.ruby.l1_cntrl3.cacheMemory.demand_misses            0                       # Number of cache demand misses
system.ruby.l1_cntrl4.cacheMemory.demand_accesses            0                       # Number of cache demand accesses
system.ruby.l1_cntrl4.cacheMemory.demand_hits            0                       # Number of cache demand hits
system.ruby.l1_cntrl4.cacheMemory.demand_misses            0                       # Number of cache demand misses
system.ruby.l1_cntrl5.cacheMemory.demand_accesses            0                       # Number of cache demand accesses
system.ruby.l1_cntrl5.cacheMemory.demand_hits            0                       # Number of cache demand hits
system.ruby.l1_cntrl5.cacheMemory.demand_misses            0                       # Number of cache demand misses
system.ruby.l1_cntrl6.cacheMemory.demand_accesses            0                       # Number of cache demand accesses
system.ruby.l1_cntrl6.cacheMemory.demand_hits            0                       # Number of cache demand hits
system.ruby.l1_cntrl6.cacheMemory.demand_misses            0                       # Number of cache demand misses
system.ruby.l1_cntrl7.cacheMemory.demand_accesses            0                       # Number of cache demand accesses
system.ruby.l1_cntrl7.cacheMemory.demand_hits            0                       # Number of cache demand hits
system.ruby.l1_cntrl7.cacheMemory.demand_misses            0                       # Number of cache demand misses
system.ruby.network.average_flit_latency  1260.687282                      
system.ruby.network.average_flit_network_latency    12.059452                      
system.ruby.network.average_flit_queueing_latency  1248.627830                      
system.ruby.network.average_flit_vnet_latency |         nan                       |         nan                       |   12.059452                      
system.ruby.network.average_flit_vqueue_latency |         nan                       |         nan                       | 1248.627830                      
system.ruby.network.average_hops             2.100418                      
system.ruby.network.average_packet_latency  1329.460601                      
system.ruby.network.average_packet_network_latency    14.652500                      
system.ruby.network.average_packet_queueing_latency  1314.808100                      
system.ruby.network.average_packet_vnet_latency |         nan                       |         nan                       |   14.652500                      
system.ruby.network.average_packet_vqueue_latency |         nan                       |         nan                       | 1314.808100                      
system.ruby.network.avg_link_utilization     0.497515                      
system.ruby.network.avg_vc_load          |           0      0.00%      0.00% |           0      0.00%      0.00% |           0      0.00%      0.00% |           0      0.00%      0.00% |    0.196989     39.59%     39.59% |    0.300526     60.41%    100.00%
system.ruby.network.avg_vc_load::total       0.497515                      
system.ruby.network.ext_in_link_utilization        72078                      
system.ruby.network.ext_out_link_utilization        72078                      
system.ruby.network.flit_network_latency |           0                       |           0                       |      972028                      
system.ruby.network.flit_queueing_latency |           0                       |           0                       |   100643149                      
system.ruby.network.flits_received       |           0      0.00%      0.00% |           0      0.00%      0.00% |       80603    100.00%    100.00%
system.ruby.network.flits_received::total        80603                      
system.ruby.network.int_link_utilization       177825                      
system.ruby.network.packet_network_latency |           0                       |           0                       |      212725                      
system.ruby.network.packet_queueing_latency |           0                       |           0                       |    19088384                      
system.ruby.network.packets_received     |           0      0.00%      0.00% |           0      0.00%      0.00% |       14518    100.00%    100.00%
system.ruby.network.packets_received::total        14518                      
system.ruby.network.routers0.buffer_reads        49088                      
system.ruby.network.routers0.buffer_writes        49088                      
system.ruby.network.routers0.crossbar_activity        49088                      
system.ruby.network.routers0.sw_input_arbiter_activity        49360                      
system.ruby.network.routers0.sw_output_arbiter_activity        49088                      
system.ruby.network.routers1.buffer_reads        37136                      
system.ruby.network.routers1.buffer_writes        37136                      
system.ruby.network.routers1.crossbar_activity        37136                      
system.ruby.network.routers1.sw_input_arbiter_activity        37857                      
system.ruby.network.routers1.sw_output_arbiter_activity        37136                      
system.ruby.network.routers2.buffer_reads        39704                      
system.ruby.network.routers2.buffer_writes        39704                      
system.ruby.network.routers2.crossbar_activity        39704                      
system.ruby.network.routers2.sw_input_arbiter_activity        39979                      
system.ruby.network.routers2.sw_output_arbiter_activity        39704                      
system.ruby.network.routers3.buffer_reads        31589                      
system.ruby.network.routers3.buffer_writes        31589                      
system.ruby.network.routers3.crossbar_activity        31589                      
system.ruby.network.routers3.sw_input_arbiter_activity        31684                      
system.ruby.network.routers3.sw_output_arbiter_activity        31589                      
system.ruby.network.routers4.buffer_reads        25376                      
system.ruby.network.routers4.buffer_writes        25376                      
system.ruby.network.routers4.crossbar_activity        25376                      
system.ruby.network.routers4.sw_input_arbiter_activity        25412                      
system.ruby.network.routers4.sw_output_arbiter_activity        25376                      
system.ruby.network.routers5.buffer_reads        18748                      
system.ruby.network.routers5.buffer_writes        18748                      
system.ruby.network.routers5.crossbar_activity        18748                      
system.ruby.network.routers5.sw_input_arbiter_activity        18938                      
system.ruby.network.routers5.sw_output_arbiter_activity        18748                      
system.ruby.network.routers6.buffer_reads        27981                      
system.ruby.network.routers6.buffer_writes        27981                      
system.ruby.network.routers6.crossbar_activity        27981                      
system.ruby.network.routers6.sw_input_arbiter_activity        28275                      
system.ruby.network.routers6.sw_output_arbiter_activity        27981                      
system.ruby.network.routers7.buffer_reads        20281                      
system.ruby.network.routers7.buffer_writes        20281                      
system.ruby.network.routers7.crossbar_activity        20281                      
system.ruby.network.routers7.sw_input_arbiter_activity        20447                      
system.ruby.network.routers7.sw_output_arbiter_activity        20281                      
system.voltage_domain.voltage                       1                       # Voltage in Volts
system.clk_domain.clock                             1                       # Clock period in ticks
system.sys_port_proxy.pwrStateResidencyTicks::UNDEFINED       647178                       # Cumulative time (in ticks) in various power states
system.cpu6.pwrStateResidencyTicks::UNDEFINED       647178                       # Cumulative time (in ticks) in various power states
system.cpu7.pwrStateResidencyTicks::UNDEFINED       647178                       # Cumulative time (in ticks) in various power states
system.cpu4.pwrStateResidencyTicks::UNDEFINED       647178                       # Cumulative time (in ticks) in various power states
system.cpu5.pwrStateResidencyTicks::UNDEFINED       647178                       # Cumulative time (in ticks) in various power states
system.cpu2.pwrStateResidencyTicks::UNDEFINED       647178                       # Cumulative time (in ticks) in various power states
system.cpu3.pwrStateResidencyTicks::UNDEFINED       647178                       # Cumulative time (in ticks) in various power states
system.cpu0.pwrStateResidencyTicks::UNDEFINED       647178                       # Cumulative time (in ticks) in various power states
system.cpu1.pwrStateResidencyTicks::UNDEFINED       647178                       # Cumulative time (in ticks) in various power states
system.ruby.pwrStateResidencyTicks::UNDEFINED       647178                       # Cumulative time (in ticks) in various power states
system.ruby.l1_cntrl4.pwrStateResidencyTicks::UNDEFINED       647178                       # Cumulative time (in ticks) in various power states
system.ruby.l1_cntrl4.sequencer.pwrStateResidencyTicks::UNDEFINED       647178                       # Cumulative time (in ticks) in various power states
system.ruby.l1_cntrl5.pwrStateResidencyTicks::UNDEFINED       647178                       # Cumulative time (in ticks) in various power states
system.ruby.l1_cntrl5.sequencer.pwrStateResidencyTicks::UNDEFINED       647178                       # Cumulative time (in ticks) in various power states
system.ruby.l1_cntrl6.pwrStateResidencyTicks::UNDEFINED       647178                       # Cumulative time (in ticks) in various power states
system.ruby.l1_cntrl6.sequencer.pwrStateResidencyTicks::UNDEFINED       647178                       # Cumulative time (in ticks) in various power states
system.ruby.l1_cntrl7.pwrStateResidencyTicks::UNDEFINED       647178                       # Cumulative time (in ticks) in various power states
system.ruby.l1_cntrl7.sequencer.pwrStateResidencyTicks::UNDEFINED       647178                       # Cumulative time (in ticks) in various power states
system.ruby.l1_cntrl0.pwrStateResidencyTicks::UNDEFINED       647178                       # Cumulative time (in ticks) in various power states
system.ruby.l1_cntrl0.sequencer.pwrStateResidencyTicks::UNDEFINED       647178                       # Cumulative time (in ticks) in various power states
system.ruby.l1_cntrl1.pwrStateResidencyTicks::UNDEFINED       647178                       # Cumulative time (in ticks) in various power states
system.ruby.l1_cntrl1.sequencer.pwrStateResidencyTicks::UNDEFINED       647178                       # Cumulative time (in ticks) in various power states
system.ruby.l1_cntrl2.pwrStateResidencyTicks::UNDEFINED       647178                       # Cumulative time (in ticks) in various power states
system.ruby.l1_cntrl2.sequencer.pwrStateResidencyTicks::UNDEFINED       647178                       # Cumulative time (in ticks) in various power states
system.ruby.l1_cntrl3.pwrStateResidencyTicks::UNDEFINED       647178                       # Cumulative time (in ticks) in various power states
system.ruby.l1_cntrl3.sequencer.pwrStateResidencyTicks::UNDEFINED       647178                       # Cumulative time (in ticks) in various power states
system.ruby.clk_domain.clock                        1                       # Clock period in ticks
system.ruby.network.pwrStateResidencyTicks::UNDEFINED       647178                       # Cumulative time (in ticks) in various power states
system.ruby.network.netifs8.pwrStateResidencyTicks::UNDEFINED       647178                       # Cumulative time (in ticks) in various power states
system.ruby.network.netifs9.pwrStateResidencyTicks::UNDEFINED       647178                       # Cumulative time (in ticks) in various power states
system.ruby.network.netifs6.pwrStateResidencyTicks::UNDEFINED       647178                       # Cumulative time (in ticks) in various power states
system.ruby.network.netifs7.pwrStateResidencyTicks::UNDEFINED       647178                       # Cumulative time (in ticks) in various power states
system.ruby.network.netifs4.pwrStateResidencyTicks::UNDEFINED       647178                       # Cumulative time (in ticks) in various power states
system.ruby.network.netifs5.pwrStateResidencyTicks::UNDEFINED       647178                       # Cumulative time (in ticks) in various power states
system.ruby.network.netifs2.pwrStateResidencyTicks::UNDEFINED       647178                       # Cumulative time (in ticks) in various power states
system.ruby.network.netifs3.pwrStateResidencyTicks::UNDEFINED       647178                       # Cumulative time (in ticks) in various power states
system.ruby.network.netifs0.pwrStateResidencyTicks::UNDEFINED       647178                       # Cumulative time (in ticks) in various power states
system.ruby.network.netifs1.pwrStateResidencyTicks::UNDEFINED       647178                       # Cumulative time (in ticks) in various power states
system.ruby.network.netifs10.pwrStateResidencyTicks::UNDEFINED       647178                       # Cumulative time (in ticks) in various power states
system.ruby.network.netifs11.pwrStateResidencyTicks::UNDEFINED       647178                       # Cumulative time (in ticks) in various power states
system.ruby.network.netifs12.pwrStateResidencyTicks::UNDEFINED       647178                       # Cumulative time (in ticks) in various power states
system.ruby.network.netifs13.pwrStateResidencyTicks::UNDEFINED       647178                       # Cumulative time (in ticks) in various power states
system.ruby.network.netifs14.pwrStateResidencyTicks::UNDEFINED       647178                       # Cumulative time (in ticks) in various power states
system.ruby.network.netifs15.pwrStateResidencyTicks::UNDEFINED       647178                       # Cumulative time (in ticks) in various power states
system.ruby.network.int_links15.credit_link.pwrStateResidencyTicks::UNDEFINED       647178                       # Cumulative time (in ticks) in various power states
system.ruby.network.int_links15.network_link.pwrStateResidencyTicks::UNDEFINED       647178                       # Cumulative time (in ticks) in various power states
system.ruby.network.int_links14.credit_link.pwrStateResidencyTicks::UNDEFINED       647178                       # Cumulative time (in ticks) in various power states
system.ruby.network.int_links14.network_link.pwrStateResidencyTicks::UNDEFINED       647178                       # Cumulative time (in ticks) in various power states
system.ruby.network.int_links11.credit_link.pwrStateResidencyTicks::UNDEFINED       647178                       # Cumulative time (in ticks) in various power states
system.ruby.network.int_links11.network_link.pwrStateResidencyTicks::UNDEFINED       647178                       # Cumulative time (in ticks) in various power states
system.ruby.network.int_links10.credit_link.pwrStateResidencyTicks::UNDEFINED       647178                       # Cumulative time (in ticks) in various power states
system.ruby.network.int_links10.network_link.pwrStateResidencyTicks::UNDEFINED       647178                       # Cumulative time (in ticks) in various power states
system.ruby.network.int_links13.credit_link.pwrStateResidencyTicks::UNDEFINED       647178                       # Cumulative time (in ticks) in various power states
system.ruby.network.int_links13.network_link.pwrStateResidencyTicks::UNDEFINED       647178                       # Cumulative time (in ticks) in various power states
system.ruby.network.int_links12.credit_link.pwrStateResidencyTicks::UNDEFINED       647178                       # Cumulative time (in ticks) in various power states
system.ruby.network.int_links12.network_link.pwrStateResidencyTicks::UNDEFINED       647178                       # Cumulative time (in ticks) in various power states
system.ruby.network.int_links9.credit_link.pwrStateResidencyTicks::UNDEFINED       647178                       # Cumulative time (in ticks) in various power states
system.ruby.network.int_links9.network_link.pwrStateResidencyTicks::UNDEFINED       647178                       # Cumulative time (in ticks) in various power states
system.ruby.network.int_links8.credit_link.pwrStateResidencyTicks::UNDEFINED       647178                       # Cumulative time (in ticks) in various power states
system.ruby.network.int_links8.network_link.pwrStateResidencyTicks::UNDEFINED       647178                       # Cumulative time (in ticks) in various power states
system.ruby.network.int_links1.credit_link.pwrStateResidencyTicks::UNDEFINED       647178                       # Cumulative time (in ticks) in various power states
system.ruby.network.int_links1.network_link.pwrStateResidencyTicks::UNDEFINED       647178                       # Cumulative time (in ticks) in various power states
system.ruby.network.int_links0.credit_link.pwrStateResidencyTicks::UNDEFINED       647178                       # Cumulative time (in ticks) in various power states
system.ruby.network.int_links0.network_link.pwrStateResidencyTicks::UNDEFINED       647178                       # Cumulative time (in ticks) in various power states
system.ruby.network.int_links3.credit_link.pwrStateResidencyTicks::UNDEFINED       647178                       # Cumulative time (in ticks) in various power states
system.ruby.network.int_links3.network_link.pwrStateResidencyTicks::UNDEFINED       647178                       # Cumulative time (in ticks) in various power states
system.ruby.network.int_links2.credit_link.pwrStateResidencyTicks::UNDEFINED       647178                       # Cumulative time (in ticks) in various power states
system.ruby.network.int_links2.network_link.pwrStateResidencyTicks::UNDEFINED       647178                       # Cumulative time (in ticks) in various power states
system.ruby.network.int_links5.credit_link.pwrStateResidencyTicks::UNDEFINED       647178                       # Cumulative time (in ticks) in various power states
system.ruby.network.int_links5.network_link.pwrStateResidencyTicks::UNDEFINED       647178                       # Cumulative time (in ticks) in various power states
system.ruby.network.int_links4.credit_link.pwrStateResidencyTicks::UNDEFINED       647178                       # Cumulative time (in ticks) in various power states
system.ruby.network.int_links4.network_link.pwrStateResidencyTicks::UNDEFINED       647178                       # Cumulative time (in ticks) in various power states
system.ruby.network.int_links7.credit_link.pwrStateResidencyTicks::UNDEFINED       647178                       # Cumulative time (in ticks) in various power states
system.ruby.network.int_links7.network_link.pwrStateResidencyTicks::UNDEFINED       647178                       # Cumulative time (in ticks) in various power states
system.ruby.network.int_links6.credit_link.pwrStateResidencyTicks::UNDEFINED       647178                       # Cumulative time (in ticks) in various power states
system.ruby.network.int_links6.network_link.pwrStateResidencyTicks::UNDEFINED       647178                       # Cumulative time (in ticks) in various power states
system.ruby.network.ext_links9.credit_links0.pwrStateResidencyTicks::UNDEFINED       647178                       # Cumulative time (in ticks) in various power states
system.ruby.network.ext_links9.credit_links1.pwrStateResidencyTicks::UNDEFINED       647178                       # Cumulative time (in ticks) in various power states
system.ruby.network.ext_links9.network_links1.pwrStateResidencyTicks::UNDEFINED       647178                       # Cumulative time (in ticks) in various power states
system.ruby.network.ext_links9.network_links0.pwrStateResidencyTicks::UNDEFINED       647178                       # Cumulative time (in ticks) in various power states
system.ruby.network.ext_links8.credit_links0.pwrStateResidencyTicks::UNDEFINED       647178                       # Cumulative time (in ticks) in various power states
system.ruby.network.ext_links8.credit_links1.pwrStateResidencyTicks::UNDEFINED       647178                       # Cumulative time (in ticks) in various power states
system.ruby.network.ext_links8.network_links1.pwrStateResidencyTicks::UNDEFINED       647178                       # Cumulative time (in ticks) in various power states
system.ruby.network.ext_links8.network_links0.pwrStateResidencyTicks::UNDEFINED       647178                       # Cumulative time (in ticks) in various power states
system.ruby.network.ext_links7.credit_links0.pwrStateResidencyTicks::UNDEFINED       647178                       # Cumulative time (in ticks) in various power states
system.ruby.network.ext_links7.credit_links1.pwrStateResidencyTicks::UNDEFINED       647178                       # Cumulative time (in ticks) in various power states
system.ruby.network.ext_links7.network_links1.pwrStateResidencyTicks::UNDEFINED       647178                       # Cumulative time (in ticks) in various power states
system.ruby.network.ext_links7.network_links0.pwrStateResidencyTicks::UNDEFINED       647178                       # Cumulative time (in ticks) in various power states
system.ruby.network.ext_links6.credit_links0.pwrStateResidencyTicks::UNDEFINED       647178                       # Cumulative time (in ticks) in various power states
system.ruby.network.ext_links6.credit_links1.pwrStateResidencyTicks::UNDEFINED       647178                       # Cumulative time (in ticks) in various power states
system.ruby.network.ext_links6.network_links1.pwrStateResidencyTicks::UNDEFINED       647178                       # Cumulative time (in ticks) in various power states
system.ruby.network.ext_links6.network_links0.pwrStateResidencyTicks::UNDEFINED       647178                       # Cumulative time (in ticks) in various power states
system.ruby.network.ext_links5.credit_links0.pwrStateResidencyTicks::UNDEFINED       647178                       # Cumulative time (in ticks) in various power states
system.ruby.network.ext_links5.credit_links1.pwrStateResidencyTicks::UNDEFINED       647178                       # Cumulative time (in ticks) in various power states
system.ruby.network.ext_links5.network_links1.pwrStateResidencyTicks::UNDEFINED       647178                       # Cumulative time (in ticks) in various power states
system.ruby.network.ext_links5.network_links0.pwrStateResidencyTicks::UNDEFINED       647178                       # Cumulative time (in ticks) in various power states
system.ruby.network.ext_links4.credit_links0.pwrStateResidencyTicks::UNDEFINED       647178                       # Cumulative time (in ticks) in various power states
system.ruby.network.ext_links4.credit_links1.pwrStateResidencyTicks::UNDEFINED       647178                       # Cumulative time (in ticks) in various power states
system.ruby.network.ext_links4.network_links1.pwrStateResidencyTicks::UNDEFINED       647178                       # Cumulative time (in ticks) in various power states
system.ruby.network.ext_links4.network_links0.pwrStateResidencyTicks::UNDEFINED       647178                       # Cumulative time (in ticks) in various power states
system.ruby.network.ext_links3.credit_links0.pwrStateResidencyTicks::UNDEFINED       647178                       # Cumulative time (in ticks) in various power states
system.ruby.network.ext_links3.credit_links1.pwrStateResidencyTicks::UNDEFINED       647178                       # Cumulative time (in ticks) in various power states
system.ruby.network.ext_links3.network_links1.pwrStateResidencyTicks::UNDEFINED       647178                       # Cumulative time (in ticks) in various power states
system.ruby.network.ext_links3.network_links0.pwrStateResidencyTicks::UNDEFINED       647178                       # Cumulative time (in ticks) in various power states
system.ruby.network.ext_links2.credit_links0.pwrStateResidencyTicks::UNDEFINED       647178                       # Cumulative time (in ticks) in various power states
system.ruby.network.ext_links2.credit_links1.pwrStateResidencyTicks::UNDEFINED       647178                       # Cumulative time (in ticks) in various power states
system.ruby.network.ext_links2.network_links1.pwrStateResidencyTicks::UNDEFINED       647178                       # Cumulative time (in ticks) in various power states
system.ruby.network.ext_links2.network_links0.pwrStateResidencyTicks::UNDEFINED       647178                       # Cumulative time (in ticks) in various power states
system.ruby.network.ext_links1.credit_links0.pwrStateResidencyTicks::UNDEFINED       647178                       # Cumulative time (in ticks) in various power states
system.ruby.network.ext_links1.credit_links1.pwrStateResidencyTicks::UNDEFINED       647178                       # Cumulative time (in ticks) in various power states
system.ruby.network.ext_links1.network_links1.pwrStateResidencyTicks::UNDEFINED       647178                       # Cumulative time (in ticks) in various power states
system.ruby.network.ext_links1.network_links0.pwrStateResidencyTicks::UNDEFINED       647178                       # Cumulative time (in ticks) in various power states
system.ruby.network.ext_links0.credit_links0.pwrStateResidencyTicks::UNDEFINED       647178                       # Cumulative time (in ticks) in various power states
system.ruby.network.ext_links0.credit_links1.pwrStateResidencyTicks::UNDEFINED       647178                       # Cumulative time (in ticks) in various power states
system.ruby.network.ext_links0.network_links1.pwrStateResidencyTicks::UNDEFINED       647178                       # Cumulative time (in ticks) in various power states
system.ruby.network.ext_links0.network_links0.pwrStateResidencyTicks::UNDEFINED       647178                       # Cumulative time (in ticks) in various power states
system.ruby.network.routers2.pwrStateResidencyTicks::UNDEFINED       647178                       # Cumulative time (in ticks) in various power states
system.ruby.network.routers3.pwrStateResidencyTicks::UNDEFINED       647178                       # Cumulative time (in ticks) in various power states
system.ruby.network.routers0.pwrStateResidencyTicks::UNDEFINED       647178                       # Cumulative time (in ticks) in various power states
system.ruby.network.routers1.pwrStateResidencyTicks::UNDEFINED       647178                       # Cumulative time (in ticks) in various power states
system.ruby.network.routers6.pwrStateResidencyTicks::UNDEFINED       647178                       # Cumulative time (in ticks) in various power states
system.ruby.network.routers7.pwrStateResidencyTicks::UNDEFINED       647178                       # Cumulative time (in ticks) in various power states
system.ruby.network.routers4.pwrStateResidencyTicks::UNDEFINED       647178                       # Cumulative time (in ticks) in various power states
system.ruby.network.routers5.pwrStateResidencyTicks::UNDEFINED       647178                       # Cumulative time (in ticks) in various power states
system.ruby.network.ext_links15.credit_links0.pwrStateResidencyTicks::UNDEFINED       647178                       # Cumulative time (in ticks) in various power states
system.ruby.network.ext_links15.credit_links1.pwrStateResidencyTicks::UNDEFINED       647178                       # Cumulative time (in ticks) in various power states
system.ruby.network.ext_links15.network_links1.pwrStateResidencyTicks::UNDEFINED       647178                       # Cumulative time (in ticks) in various power states
system.ruby.network.ext_links15.network_links0.pwrStateResidencyTicks::UNDEFINED       647178                       # Cumulative time (in ticks) in various power states
system.ruby.network.ext_links14.credit_links0.pwrStateResidencyTicks::UNDEFINED       647178                       # Cumulative time (in ticks) in various power states
system.ruby.network.ext_links14.credit_links1.pwrStateResidencyTicks::UNDEFINED       647178                       # Cumulative time (in ticks) in various power states
system.ruby.network.ext_links14.network_links1.pwrStateResidencyTicks::UNDEFINED       647178                       # Cumulative time (in ticks) in various power states
system.ruby.network.ext_links14.network_links0.pwrStateResidencyTicks::UNDEFINED       647178                       # Cumulative time (in ticks) in various power states
system.ruby.network.ext_links13.credit_links0.pwrStateResidencyTicks::UNDEFINED       647178                       # Cumulative time (in ticks) in various power states
system.ruby.network.ext_links13.credit_links1.pwrStateResidencyTicks::UNDEFINED       647178                       # Cumulative time (in ticks) in various power states
system.ruby.network.ext_links13.network_links1.pwrStateResidencyTicks::UNDEFINED       647178                       # Cumulative time (in ticks) in various power states
system.ruby.network.ext_links13.network_links0.pwrStateResidencyTicks::UNDEFINED       647178                       # Cumulative time (in ticks) in various power states
system.ruby.network.ext_links12.credit_links0.pwrStateResidencyTicks::UNDEFINED       647178                       # Cumulative time (in ticks) in various power states
system.ruby.network.ext_links12.credit_links1.pwrStateResidencyTicks::UNDEFINED       647178                       # Cumulative time (in ticks) in various power states
system.ruby.network.ext_links12.network_links1.pwrStateResidencyTicks::UNDEFINED       647178                       # Cumulative time (in ticks) in various power states
system.ruby.network.ext_links12.network_links0.pwrStateResidencyTicks::UNDEFINED       647178                       # Cumulative time (in ticks) in various power states
system.ruby.network.ext_links11.credit_links0.pwrStateResidencyTicks::UNDEFINED       647178                       # Cumulative time (in ticks) in various power states
system.ruby.network.ext_links11.credit_links1.pwrStateResidencyTicks::UNDEFINED       647178                       # Cumulative time (in ticks) in various power states
system.ruby.network.ext_links11.network_links1.pwrStateResidencyTicks::UNDEFINED       647178                       # Cumulative time (in ticks) in various power states
system.ruby.network.ext_links11.network_links0.pwrStateResidencyTicks::UNDEFINED       647178                       # Cumulative time (in ticks) in various power states
system.ruby.network.ext_links10.credit_links0.pwrStateResidencyTicks::UNDEFINED       647178                       # Cumulative time (in ticks) in various power states
system.ruby.network.ext_links10.credit_links1.pwrStateResidencyTicks::UNDEFINED       647178                       # Cumulative time (in ticks) in various power states
system.ruby.network.ext_links10.network_links1.pwrStateResidencyTicks::UNDEFINED       647178                       # Cumulative time (in ticks) in various power states
system.ruby.network.ext_links10.network_links0.pwrStateResidencyTicks::UNDEFINED       647178                       # Cumulative time (in ticks) in various power states
system.ruby.dir_cntrl7.pwrStateResidencyTicks::UNDEFINED       647178                       # Cumulative time (in ticks) in various power states
system.ruby.dir_cntrl6.pwrStateResidencyTicks::UNDEFINED       647178                       # Cumulative time (in ticks) in various power states
system.ruby.dir_cntrl5.pwrStateResidencyTicks::UNDEFINED       647178                       # Cumulative time (in ticks) in various power states
system.ruby.dir_cntrl4.pwrStateResidencyTicks::UNDEFINED       647178                       # Cumulative time (in ticks) in various power states
system.ruby.dir_cntrl3.pwrStateResidencyTicks::UNDEFINED       647178                       # Cumulative time (in ticks) in various power states
system.ruby.dir_cntrl2.pwrStateResidencyTicks::UNDEFINED       647178                       # Cumulative time (in ticks) in various power states
system.ruby.dir_cntrl1.pwrStateResidencyTicks::UNDEFINED       647178                       # Cumulative time (in ticks) in various power states
system.ruby.dir_cntrl0.pwrStateResidencyTicks::UNDEFINED       647178                       # Cumulative time (in ticks) in various power states
system.mem_ctrls2.pwrStateResidencyTicks::UNDEFINED       647178                       # Cumulative time (in ticks) in various power states
system.mem_ctrls2.priorityMinLatency     0.000000000000                       # per QoS priority minimum request to response latency (s)
system.mem_ctrls2.priorityMaxLatency     0.000000000000                       # per QoS priority maximum request to response latency (s)
system.mem_ctrls2.numReadWriteTurnArounds            0                       # Number of turnarounds from READ to WRITE
system.mem_ctrls2.numWriteReadTurnArounds            0                       # Number of turnarounds from WRITE to READ
system.mem_ctrls2.numStayReadState                166                       # Number of times bus staying in READ state
system.mem_ctrls2.numStayWriteState                 0                       # Number of times bus staying in WRITE state
system.mem_ctrls2.readReqs                          0                       # Number of read requests accepted
system.mem_ctrls2.writeReqs                         0                       # Number of write requests accepted
system.mem_ctrls2.readBursts                        0                       # Number of DRAM read bursts, including those serviced by the write queue
system.mem_ctrls2.writeBursts                       0                       # Number of DRAM write bursts, including those merged in the write queue
system.mem_ctrls2.servicedByWrQ                     0                       # Number of DRAM read bursts serviced by the write queue
system.mem_ctrls2.mergedWrBursts                    0                       # Number of DRAM write bursts merged with an existing one
system.mem_ctrls2.neitherReadNorWriteReqs            0                       # Number of requests that are neither read nor write
system.mem_ctrls2.perBankRdBursts::0                0                       # Per bank write bursts
system.mem_ctrls2.perBankRdBursts::1                0                       # Per bank write bursts
system.mem_ctrls2.perBankRdBursts::2                0                       # Per bank write bursts
system.mem_ctrls2.perBankRdBursts::3                0                       # Per bank write bursts
system.mem_ctrls2.perBankRdBursts::4                0                       # Per bank write bursts
system.mem_ctrls2.perBankRdBursts::5                0                       # Per bank write bursts
system.mem_ctrls2.perBankRdBursts::6                0                       # Per bank write bursts
system.mem_ctrls2.perBankRdBursts::7                0                       # Per bank write bursts
system.mem_ctrls2.perBankRdBursts::8                0                       # Per bank write bursts
system.mem_ctrls2.perBankRdBursts::9                0                       # Per bank write bursts
system.mem_ctrls2.perBankRdBursts::10               0                       # Per bank write bursts
system.mem_ctrls2.perBankRdBursts::11               0                       # Per bank write bursts
system.mem_ctrls2.perBankRdBursts::12               0                       # Per bank write bursts
system.mem_ctrls2.perBankRdBursts::13               0                       # Per bank write bursts
system.mem_ctrls2.perBankRdBursts::14               0                       # Per bank write bursts
system.mem_ctrls2.perBankRdBursts::15               0                       # Per bank write bursts
system.mem_ctrls2.perBankWrBursts::0                0                       # Per bank write bursts
system.mem_ctrls2.perBankWrBursts::1                0                       # Per bank write bursts
system.mem_ctrls2.perBankWrBursts::2                0                       # Per bank write bursts
system.mem_ctrls2.perBankWrBursts::3                0                       # Per bank write bursts
system.mem_ctrls2.perBankWrBursts::4                0                       # Per bank write bursts
system.mem_ctrls2.perBankWrBursts::5                0                       # Per bank write bursts
system.mem_ctrls2.perBankWrBursts::6                0                       # Per bank write bursts
system.mem_ctrls2.perBankWrBursts::7                0                       # Per bank write bursts
system.mem_ctrls2.perBankWrBursts::8                0                       # Per bank write bursts
system.mem_ctrls2.perBankWrBursts::9                0                       # Per bank write bursts
system.mem_ctrls2.perBankWrBursts::10               0                       # Per bank write bursts
system.mem_ctrls2.perBankWrBursts::11               0                       # Per bank write bursts
system.mem_ctrls2.perBankWrBursts::12               0                       # Per bank write bursts
system.mem_ctrls2.perBankWrBursts::13               0                       # Per bank write bursts
system.mem_ctrls2.perBankWrBursts::14               0                       # Per bank write bursts
system.mem_ctrls2.perBankWrBursts::15               0                       # Per bank write bursts
system.mem_ctrls2.avgRdQLen                      0.00                       # Average read queue length when enqueuing
system.mem_ctrls2.avgWrQLen                      0.00                       # Average write queue length when enqueuing
system.mem_ctrls2.totQLat                           0                       # Total ticks spent queuing
system.mem_ctrls2.totBusLat                         0                       # Total ticks spent in databus transfers
system.mem_ctrls2.totMemAccLat                      0                       # Total ticks spent from burst creation until serviced by the DRAM
system.mem_ctrls2.avgQLat                         nan                       # Average queueing delay per DRAM burst
system.mem_ctrls2.avgBusLat                       nan                       # Average bus latency per DRAM burst
system.mem_ctrls2.avgMemAccLat                    nan                       # Average memory access latency per DRAM burst
system.mem_ctrls2.numRdRetry                        0                       # Number of times read queue was full causing retry
system.mem_ctrls2.numWrRetry                        0                       # Number of times write queue was full causing retry
system.mem_ctrls2.readRowHits                       0                       # Number of row buffer hits during reads
system.mem_ctrls2.writeRowHits                      0                       # Number of row buffer hits during writes
system.mem_ctrls2.readRowHitRate                  nan                       # Row buffer hit rate for reads
system.mem_ctrls2.writeRowHitRate                 nan                       # Row buffer hit rate for writes
system.mem_ctrls2.readPktSize::0                    0                       # Read request sizes (log2)
system.mem_ctrls2.readPktSize::1                    0                       # Read request sizes (log2)
system.mem_ctrls2.readPktSize::2                    0                       # Read request sizes (log2)
system.mem_ctrls2.readPktSize::3                    0                       # Read request sizes (log2)
system.mem_ctrls2.readPktSize::4                    0                       # Read request sizes (log2)
system.mem_ctrls2.readPktSize::5                    0                       # Read request sizes (log2)
system.mem_ctrls2.readPktSize::6                    0                       # Read request sizes (log2)
system.mem_ctrls2.writePktSize::0                   0                       # Write request sizes (log2)
system.mem_ctrls2.writePktSize::1                   0                       # Write request sizes (log2)
system.mem_ctrls2.writePktSize::2                   0                       # Write request sizes (log2)
system.mem_ctrls2.writePktSize::3                   0                       # Write request sizes (log2)
system.mem_ctrls2.writePktSize::4                   0                       # Write request sizes (log2)
system.mem_ctrls2.writePktSize::5                   0                       # Write request sizes (log2)
system.mem_ctrls2.writePktSize::6                   0                       # Write request sizes (log2)
system.mem_ctrls2.rdQLenPdf::0                      0                       # What read queue length does an incoming req see
system.mem_ctrls2.rdQLenPdf::1                      0                       # What read queue length does an incoming req see
system.mem_ctrls2.rdQLenPdf::2                      0                       # What read queue length does an incoming req see
system.mem_ctrls2.rdQLenPdf::3                      0                       # What read queue length does an incoming req see
system.mem_ctrls2.rdQLenPdf::4                      0                       # What read queue length does an incoming req see
system.mem_ctrls2.rdQLenPdf::5                      0                       # What read queue length does an incoming req see
system.mem_ctrls2.rdQLenPdf::6                      0                       # What read queue length does an incoming req see
system.mem_ctrls2.rdQLenPdf::7                      0                       # What read queue length does an incoming req see
system.mem_ctrls2.rdQLenPdf::8                      0                       # What read queue length does an incoming req see
system.mem_ctrls2.rdQLenPdf::9                      0                       # What read queue length does an incoming req see
system.mem_ctrls2.rdQLenPdf::10                     0                       # What read queue length does an incoming req see
system.mem_ctrls2.rdQLenPdf::11                     0                       # What read queue length does an incoming req see
system.mem_ctrls2.rdQLenPdf::12                     0                       # What read queue length does an incoming req see
system.mem_ctrls2.rdQLenPdf::13                     0                       # What read queue length does an incoming req see
system.mem_ctrls2.rdQLenPdf::14                     0                       # What read queue length does an incoming req see
system.mem_ctrls2.rdQLenPdf::15                     0                       # What read queue length does an incoming req see
system.mem_ctrls2.rdQLenPdf::16                     0                       # What read queue length does an incoming req see
system.mem_ctrls2.rdQLenPdf::17                     0                       # What read queue length does an incoming req see
system.mem_ctrls2.rdQLenPdf::18                     0                       # What read queue length does an incoming req see
system.mem_ctrls2.rdQLenPdf::19                     0                       # What read queue length does an incoming req see
system.mem_ctrls2.rdQLenPdf::20                     0                       # What read queue length does an incoming req see
system.mem_ctrls2.rdQLenPdf::21                     0                       # What read queue length does an incoming req see
system.mem_ctrls2.rdQLenPdf::22                     0                       # What read queue length does an incoming req see
system.mem_ctrls2.rdQLenPdf::23                     0                       # What read queue length does an incoming req see
system.mem_ctrls2.rdQLenPdf::24                     0                       # What read queue length does an incoming req see
system.mem_ctrls2.rdQLenPdf::25                     0                       # What read queue length does an incoming req see
system.mem_ctrls2.rdQLenPdf::26                     0                       # What read queue length does an incoming req see
system.mem_ctrls2.rdQLenPdf::27                     0                       # What read queue length does an incoming req see
system.mem_ctrls2.rdQLenPdf::28                     0                       # What read queue length does an incoming req see
system.mem_ctrls2.rdQLenPdf::29                     0                       # What read queue length does an incoming req see
system.mem_ctrls2.rdQLenPdf::30                     0                       # What read queue length does an incoming req see
system.mem_ctrls2.rdQLenPdf::31                     0                       # What read queue length does an incoming req see
system.mem_ctrls2.wrQLenPdf::0                      0                       # What write queue length does an incoming req see
system.mem_ctrls2.wrQLenPdf::1                      0                       # What write queue length does an incoming req see
system.mem_ctrls2.wrQLenPdf::2                      0                       # What write queue length does an incoming req see
system.mem_ctrls2.wrQLenPdf::3                      0                       # What write queue length does an incoming req see
system.mem_ctrls2.wrQLenPdf::4                      0                       # What write queue length does an incoming req see
system.mem_ctrls2.wrQLenPdf::5                      0                       # What write queue length does an incoming req see
system.mem_ctrls2.wrQLenPdf::6                      0                       # What write queue length does an incoming req see
system.mem_ctrls2.wrQLenPdf::7                      0                       # What write queue length does an incoming req see
system.mem_ctrls2.wrQLenPdf::8                      0                       # What write queue length does an incoming req see
system.mem_ctrls2.wrQLenPdf::9                      0                       # What write queue length does an incoming req see
system.mem_ctrls2.wrQLenPdf::10                     0                       # What write queue length does an incoming req see
system.mem_ctrls2.wrQLenPdf::11                     0                       # What write queue length does an incoming req see
system.mem_ctrls2.wrQLenPdf::12                     0                       # What write queue length does an incoming req see
system.mem_ctrls2.wrQLenPdf::13                     0                       # What write queue length does an incoming req see
system.mem_ctrls2.wrQLenPdf::14                     0                       # What write queue length does an incoming req see
system.mem_ctrls2.wrQLenPdf::15                     0                       # What write queue length does an incoming req see
system.mem_ctrls2.wrQLenPdf::16                     0                       # What write queue length does an incoming req see
system.mem_ctrls2.wrQLenPdf::17                     0                       # What write queue length does an incoming req see
system.mem_ctrls2.wrQLenPdf::18                     0                       # What write queue length does an incoming req see
system.mem_ctrls2.wrQLenPdf::19                     0                       # What write queue length does an incoming req see
system.mem_ctrls2.wrQLenPdf::20                     0                       # What write queue length does an incoming req see
system.mem_ctrls2.wrQLenPdf::21                     0                       # What write queue length does an incoming req see
system.mem_ctrls2.wrQLenPdf::22                     0                       # What write queue length does an incoming req see
system.mem_ctrls2.wrQLenPdf::23                     0                       # What write queue length does an incoming req see
system.mem_ctrls2.wrQLenPdf::24                     0                       # What write queue length does an incoming req see
system.mem_ctrls2.wrQLenPdf::25                     0                       # What write queue length does an incoming req see
system.mem_ctrls2.wrQLenPdf::26                     0                       # What write queue length does an incoming req see
system.mem_ctrls2.wrQLenPdf::27                     0                       # What write queue length does an incoming req see
system.mem_ctrls2.wrQLenPdf::28                     0                       # What write queue length does an incoming req see
system.mem_ctrls2.wrQLenPdf::29                     0                       # What write queue length does an incoming req see
system.mem_ctrls2.wrQLenPdf::30                     0                       # What write queue length does an incoming req see
system.mem_ctrls2.wrQLenPdf::31                     0                       # What write queue length does an incoming req see
system.mem_ctrls2.wrQLenPdf::32                     0                       # What write queue length does an incoming req see
system.mem_ctrls2.wrQLenPdf::33                     0                       # What write queue length does an incoming req see
system.mem_ctrls2.wrQLenPdf::34                     0                       # What write queue length does an incoming req see
system.mem_ctrls2.wrQLenPdf::35                     0                       # What write queue length does an incoming req see
system.mem_ctrls2.wrQLenPdf::36                     0                       # What write queue length does an incoming req see
system.mem_ctrls2.wrQLenPdf::37                     0                       # What write queue length does an incoming req see
system.mem_ctrls2.wrQLenPdf::38                     0                       # What write queue length does an incoming req see
system.mem_ctrls2.wrQLenPdf::39                     0                       # What write queue length does an incoming req see
system.mem_ctrls2.wrQLenPdf::40                     0                       # What write queue length does an incoming req see
system.mem_ctrls2.wrQLenPdf::41                     0                       # What write queue length does an incoming req see
system.mem_ctrls2.wrQLenPdf::42                     0                       # What write queue length does an incoming req see
system.mem_ctrls2.wrQLenPdf::43                     0                       # What write queue length does an incoming req see
system.mem_ctrls2.wrQLenPdf::44                     0                       # What write queue length does an incoming req see
system.mem_ctrls2.wrQLenPdf::45                     0                       # What write queue length does an incoming req see
system.mem_ctrls2.wrQLenPdf::46                     0                       # What write queue length does an incoming req see
system.mem_ctrls2.wrQLenPdf::47                     0                       # What write queue length does an incoming req see
system.mem_ctrls2.wrQLenPdf::48                     0                       # What write queue length does an incoming req see
system.mem_ctrls2.wrQLenPdf::49                     0                       # What write queue length does an incoming req see
system.mem_ctrls2.wrQLenPdf::50                     0                       # What write queue length does an incoming req see
system.mem_ctrls2.wrQLenPdf::51                     0                       # What write queue length does an incoming req see
system.mem_ctrls2.wrQLenPdf::52                     0                       # What write queue length does an incoming req see
system.mem_ctrls2.wrQLenPdf::53                     0                       # What write queue length does an incoming req see
system.mem_ctrls2.wrQLenPdf::54                     0                       # What write queue length does an incoming req see
system.mem_ctrls2.wrQLenPdf::55                     0                       # What write queue length does an incoming req see
system.mem_ctrls2.wrQLenPdf::56                     0                       # What write queue length does an incoming req see
system.mem_ctrls2.wrQLenPdf::57                     0                       # What write queue length does an incoming req see
system.mem_ctrls2.wrQLenPdf::58                     0                       # What write queue length does an incoming req see
system.mem_ctrls2.wrQLenPdf::59                     0                       # What write queue length does an incoming req see
system.mem_ctrls2.wrQLenPdf::60                     0                       # What write queue length does an incoming req see
system.mem_ctrls2.wrQLenPdf::61                     0                       # What write queue length does an incoming req see
system.mem_ctrls2.wrQLenPdf::62                     0                       # What write queue length does an incoming req see
system.mem_ctrls2.wrQLenPdf::63                     0                       # What write queue length does an incoming req see
system.mem_ctrls2.bytesReadDRAM                     0                       # Total number of bytes read from DRAM
system.mem_ctrls2.bytesReadWrQ                      0                       # Total number of bytes read from write queue
system.mem_ctrls2.bytesWritten                      0                       # Total number of bytes written to DRAM
system.mem_ctrls2.bytesReadSys                      0                       # Total read bytes from the system interface side
system.mem_ctrls2.bytesWrittenSys                   0                       # Total written bytes from the system interface side
system.mem_ctrls2.avgRdBW                        0.00                       # Average DRAM read bandwidth in MiByte/s
system.mem_ctrls2.avgWrBW                        0.00                       # Average achieved write bandwidth in MiByte/s
system.mem_ctrls2.avgRdBWSys                     0.00                       # Average system read bandwidth in MiByte/s
system.mem_ctrls2.avgWrBWSys                     0.00                       # Average system write bandwidth in MiByte/s
system.mem_ctrls2.peakBW                     12800.00                       # Theoretical peak bandwidth in MiByte/s
system.mem_ctrls2.busUtil                        0.00                       # Data bus utilization in percentage
system.mem_ctrls2.busUtilRead                    0.00                       # Data bus utilization in percentage for reads
system.mem_ctrls2.busUtilWrite                   0.00                       # Data bus utilization in percentage for writes
system.mem_ctrls2.totGap                            0                       # Total gap between requests
system.mem_ctrls2.avgGap                          nan                       # Average gap between requests
system.mem_ctrls2.pageHitRate                     nan                       # Row buffer hit rate, read and write combined
system.mem_ctrls2.rank1.actEnergy                   0                       # Energy for activate commands per rank (pJ)
system.mem_ctrls2.rank1.preEnergy                   0                       # Energy for precharge commands per rank (pJ)
system.mem_ctrls2.rank1.readEnergy                  0                       # Energy for read commands per rank (pJ)
system.mem_ctrls2.rank1.writeEnergy                 0                       # Energy for write commands per rank (pJ)
system.mem_ctrls2.rank1.refreshEnergy    51015120.000000                       # Energy for refresh commands per rank (pJ)
system.mem_ctrls2.rank1.actBackEnergy         9310608                       # Energy for active background per rank (pJ)
system.mem_ctrls2.rank1.preBackEnergy       240675840                       # Energy for precharge background per rank (pJ)
system.mem_ctrls2.rank1.actPowerDownEnergy            0                       # Energy for active power-down per rank (pJ)
system.mem_ctrls2.rank1.prePowerDownEnergy            0                       # Energy for precharge power-down per rank (pJ)
system.mem_ctrls2.rank1.selfRefreshEnergy            0                       # Energy for self refresh per rank (pJ)
system.mem_ctrls2.rank1.totalEnergy         301001568                       # Total energy per rank (pJ)
system.mem_ctrls2.rank1.averagePower       465.098579                       # Core power per rank (mW)
system.mem_ctrls2.rank1.totalIdleTime               0                       # Total Idle time Per DRAM Rank
system.mem_ctrls2.rank1.memoryStateTime::IDLE       625598                       # Time in different power states
system.mem_ctrls2.rank1.memoryStateTime::REF        21580                       # Time in different power states
system.mem_ctrls2.rank1.memoryStateTime::SREF            0                       # Time in different power states
system.mem_ctrls2.rank1.memoryStateTime::PRE_PDN            0                       # Time in different power states
system.mem_ctrls2.rank1.memoryStateTime::ACT            0                       # Time in different power states
system.mem_ctrls2.rank1.memoryStateTime::ACT_PDN            0                       # Time in different power states
system.mem_ctrls2.rank0.actEnergy                   0                       # Energy for activate commands per rank (pJ)
system.mem_ctrls2.rank0.preEnergy                   0                       # Energy for precharge commands per rank (pJ)
system.mem_ctrls2.rank0.readEnergy                  0                       # Energy for read commands per rank (pJ)
system.mem_ctrls2.rank0.writeEnergy                 0                       # Energy for write commands per rank (pJ)
system.mem_ctrls2.rank0.refreshEnergy    51015120.000000                       # Energy for refresh commands per rank (pJ)
system.mem_ctrls2.rank0.actBackEnergy         9310608                       # Energy for active background per rank (pJ)
system.mem_ctrls2.rank0.preBackEnergy       240675840                       # Energy for precharge background per rank (pJ)
system.mem_ctrls2.rank0.actPowerDownEnergy            0                       # Energy for active power-down per rank (pJ)
system.mem_ctrls2.rank0.prePowerDownEnergy            0                       # Energy for precharge power-down per rank (pJ)
system.mem_ctrls2.rank0.selfRefreshEnergy            0                       # Energy for self refresh per rank (pJ)
system.mem_ctrls2.rank0.totalEnergy         301001568                       # Total energy per rank (pJ)
system.mem_ctrls2.rank0.averagePower       465.098579                       # Core power per rank (mW)
system.mem_ctrls2.rank0.totalIdleTime               0                       # Total Idle time Per DRAM Rank
system.mem_ctrls2.rank0.memoryStateTime::IDLE       625598                       # Time in different power states
system.mem_ctrls2.rank0.memoryStateTime::REF        21580                       # Time in different power states
system.mem_ctrls2.rank0.memoryStateTime::SREF            0                       # Time in different power states
system.mem_ctrls2.rank0.memoryStateTime::PRE_PDN            0                       # Time in different power states
system.mem_ctrls2.rank0.memoryStateTime::ACT            0                       # Time in different power states
system.mem_ctrls2.rank0.memoryStateTime::ACT_PDN            0                       # Time in different power states
system.mem_ctrls3.pwrStateResidencyTicks::UNDEFINED       647178                       # Cumulative time (in ticks) in various power states
system.mem_ctrls3.priorityMinLatency     0.000000000000                       # per QoS priority minimum request to response latency (s)
system.mem_ctrls3.priorityMaxLatency     0.000000000000                       # per QoS priority maximum request to response latency (s)
system.mem_ctrls3.numReadWriteTurnArounds            0                       # Number of turnarounds from READ to WRITE
system.mem_ctrls3.numWriteReadTurnArounds            0                       # Number of turnarounds from WRITE to READ
system.mem_ctrls3.numStayReadState                166                       # Number of times bus staying in READ state
system.mem_ctrls3.numStayWriteState                 0                       # Number of times bus staying in WRITE state
system.mem_ctrls3.readReqs                          0                       # Number of read requests accepted
system.mem_ctrls3.writeReqs                         0                       # Number of write requests accepted
system.mem_ctrls3.readBursts                        0                       # Number of DRAM read bursts, including those serviced by the write queue
system.mem_ctrls3.writeBursts                       0                       # Number of DRAM write bursts, including those merged in the write queue
system.mem_ctrls3.servicedByWrQ                     0                       # Number of DRAM read bursts serviced by the write queue
system.mem_ctrls3.mergedWrBursts                    0                       # Number of DRAM write bursts merged with an existing one
system.mem_ctrls3.neitherReadNorWriteReqs            0                       # Number of requests that are neither read nor write
system.mem_ctrls3.perBankRdBursts::0                0                       # Per bank write bursts
system.mem_ctrls3.perBankRdBursts::1                0                       # Per bank write bursts
system.mem_ctrls3.perBankRdBursts::2                0                       # Per bank write bursts
system.mem_ctrls3.perBankRdBursts::3                0                       # Per bank write bursts
system.mem_ctrls3.perBankRdBursts::4                0                       # Per bank write bursts
system.mem_ctrls3.perBankRdBursts::5                0                       # Per bank write bursts
system.mem_ctrls3.perBankRdBursts::6                0                       # Per bank write bursts
system.mem_ctrls3.perBankRdBursts::7                0                       # Per bank write bursts
system.mem_ctrls3.perBankRdBursts::8                0                       # Per bank write bursts
system.mem_ctrls3.perBankRdBursts::9                0                       # Per bank write bursts
system.mem_ctrls3.perBankRdBursts::10               0                       # Per bank write bursts
system.mem_ctrls3.perBankRdBursts::11               0                       # Per bank write bursts
system.mem_ctrls3.perBankRdBursts::12               0                       # Per bank write bursts
system.mem_ctrls3.perBankRdBursts::13               0                       # Per bank write bursts
system.mem_ctrls3.perBankRdBursts::14               0                       # Per bank write bursts
system.mem_ctrls3.perBankRdBursts::15               0                       # Per bank write bursts
system.mem_ctrls3.perBankWrBursts::0                0                       # Per bank write bursts
system.mem_ctrls3.perBankWrBursts::1                0                       # Per bank write bursts
system.mem_ctrls3.perBankWrBursts::2                0                       # Per bank write bursts
system.mem_ctrls3.perBankWrBursts::3                0                       # Per bank write bursts
system.mem_ctrls3.perBankWrBursts::4                0                       # Per bank write bursts
system.mem_ctrls3.perBankWrBursts::5                0                       # Per bank write bursts
system.mem_ctrls3.perBankWrBursts::6                0                       # Per bank write bursts
system.mem_ctrls3.perBankWrBursts::7                0                       # Per bank write bursts
system.mem_ctrls3.perBankWrBursts::8                0                       # Per bank write bursts
system.mem_ctrls3.perBankWrBursts::9                0                       # Per bank write bursts
system.mem_ctrls3.perBankWrBursts::10               0                       # Per bank write bursts
system.mem_ctrls3.perBankWrBursts::11               0                       # Per bank write bursts
system.mem_ctrls3.perBankWrBursts::12               0                       # Per bank write bursts
system.mem_ctrls3.perBankWrBursts::13               0                       # Per bank write bursts
system.mem_ctrls3.perBankWrBursts::14               0                       # Per bank write bursts
system.mem_ctrls3.perBankWrBursts::15               0                       # Per bank write bursts
system.mem_ctrls3.avgRdQLen                      0.00                       # Average read queue length when enqueuing
system.mem_ctrls3.avgWrQLen                      0.00                       # Average write queue length when enqueuing
system.mem_ctrls3.totQLat                           0                       # Total ticks spent queuing
system.mem_ctrls3.totBusLat                         0                       # Total ticks spent in databus transfers
system.mem_ctrls3.totMemAccLat                      0                       # Total ticks spent from burst creation until serviced by the DRAM
system.mem_ctrls3.avgQLat                         nan                       # Average queueing delay per DRAM burst
system.mem_ctrls3.avgBusLat                       nan                       # Average bus latency per DRAM burst
system.mem_ctrls3.avgMemAccLat                    nan                       # Average memory access latency per DRAM burst
system.mem_ctrls3.numRdRetry                        0                       # Number of times read queue was full causing retry
system.mem_ctrls3.numWrRetry                        0                       # Number of times write queue was full causing retry
system.mem_ctrls3.readRowHits                       0                       # Number of row buffer hits during reads
system.mem_ctrls3.writeRowHits                      0                       # Number of row buffer hits during writes
system.mem_ctrls3.readRowHitRate                  nan                       # Row buffer hit rate for reads
system.mem_ctrls3.writeRowHitRate                 nan                       # Row buffer hit rate for writes
system.mem_ctrls3.readPktSize::0                    0                       # Read request sizes (log2)
system.mem_ctrls3.readPktSize::1                    0                       # Read request sizes (log2)
system.mem_ctrls3.readPktSize::2                    0                       # Read request sizes (log2)
system.mem_ctrls3.readPktSize::3                    0                       # Read request sizes (log2)
system.mem_ctrls3.readPktSize::4                    0                       # Read request sizes (log2)
system.mem_ctrls3.readPktSize::5                    0                       # Read request sizes (log2)
system.mem_ctrls3.readPktSize::6                    0                       # Read request sizes (log2)
system.mem_ctrls3.writePktSize::0                   0                       # Write request sizes (log2)
system.mem_ctrls3.writePktSize::1                   0                       # Write request sizes (log2)
system.mem_ctrls3.writePktSize::2                   0                       # Write request sizes (log2)
system.mem_ctrls3.writePktSize::3                   0                       # Write request sizes (log2)
system.mem_ctrls3.writePktSize::4                   0                       # Write request sizes (log2)
system.mem_ctrls3.writePktSize::5                   0                       # Write request sizes (log2)
system.mem_ctrls3.writePktSize::6                   0                       # Write request sizes (log2)
system.mem_ctrls3.rdQLenPdf::0                      0                       # What read queue length does an incoming req see
system.mem_ctrls3.rdQLenPdf::1                      0                       # What read queue length does an incoming req see
system.mem_ctrls3.rdQLenPdf::2                      0                       # What read queue length does an incoming req see
system.mem_ctrls3.rdQLenPdf::3                      0                       # What read queue length does an incoming req see
system.mem_ctrls3.rdQLenPdf::4                      0                       # What read queue length does an incoming req see
system.mem_ctrls3.rdQLenPdf::5                      0                       # What read queue length does an incoming req see
system.mem_ctrls3.rdQLenPdf::6                      0                       # What read queue length does an incoming req see
system.mem_ctrls3.rdQLenPdf::7                      0                       # What read queue length does an incoming req see
system.mem_ctrls3.rdQLenPdf::8                      0                       # What read queue length does an incoming req see
system.mem_ctrls3.rdQLenPdf::9                      0                       # What read queue length does an incoming req see
system.mem_ctrls3.rdQLenPdf::10                     0                       # What read queue length does an incoming req see
system.mem_ctrls3.rdQLenPdf::11                     0                       # What read queue length does an incoming req see
system.mem_ctrls3.rdQLenPdf::12                     0                       # What read queue length does an incoming req see
system.mem_ctrls3.rdQLenPdf::13                     0                       # What read queue length does an incoming req see
system.mem_ctrls3.rdQLenPdf::14                     0                       # What read queue length does an incoming req see
system.mem_ctrls3.rdQLenPdf::15                     0                       # What read queue length does an incoming req see
system.mem_ctrls3.rdQLenPdf::16                     0                       # What read queue length does an incoming req see
system.mem_ctrls3.rdQLenPdf::17                     0                       # What read queue length does an incoming req see
system.mem_ctrls3.rdQLenPdf::18                     0                       # What read queue length does an incoming req see
system.mem_ctrls3.rdQLenPdf::19                     0                       # What read queue length does an incoming req see
system.mem_ctrls3.rdQLenPdf::20                     0                       # What read queue length does an incoming req see
system.mem_ctrls3.rdQLenPdf::21                     0                       # What read queue length does an incoming req see
system.mem_ctrls3.rdQLenPdf::22                     0                       # What read queue length does an incoming req see
system.mem_ctrls3.rdQLenPdf::23                     0                       # What read queue length does an incoming req see
system.mem_ctrls3.rdQLenPdf::24                     0                       # What read queue length does an incoming req see
system.mem_ctrls3.rdQLenPdf::25                     0                       # What read queue length does an incoming req see
system.mem_ctrls3.rdQLenPdf::26                     0                       # What read queue length does an incoming req see
system.mem_ctrls3.rdQLenPdf::27                     0                       # What read queue length does an incoming req see
system.mem_ctrls3.rdQLenPdf::28                     0                       # What read queue length does an incoming req see
system.mem_ctrls3.rdQLenPdf::29                     0                       # What read queue length does an incoming req see
system.mem_ctrls3.rdQLenPdf::30                     0                       # What read queue length does an incoming req see
system.mem_ctrls3.rdQLenPdf::31                     0                       # What read queue length does an incoming req see
system.mem_ctrls3.wrQLenPdf::0                      0                       # What write queue length does an incoming req see
system.mem_ctrls3.wrQLenPdf::1                      0                       # What write queue length does an incoming req see
system.mem_ctrls3.wrQLenPdf::2                      0                       # What write queue length does an incoming req see
system.mem_ctrls3.wrQLenPdf::3                      0                       # What write queue length does an incoming req see
system.mem_ctrls3.wrQLenPdf::4                      0                       # What write queue length does an incoming req see
system.mem_ctrls3.wrQLenPdf::5                      0                       # What write queue length does an incoming req see
system.mem_ctrls3.wrQLenPdf::6                      0                       # What write queue length does an incoming req see
system.mem_ctrls3.wrQLenPdf::7                      0                       # What write queue length does an incoming req see
system.mem_ctrls3.wrQLenPdf::8                      0                       # What write queue length does an incoming req see
system.mem_ctrls3.wrQLenPdf::9                      0                       # What write queue length does an incoming req see
system.mem_ctrls3.wrQLenPdf::10                     0                       # What write queue length does an incoming req see
system.mem_ctrls3.wrQLenPdf::11                     0                       # What write queue length does an incoming req see
system.mem_ctrls3.wrQLenPdf::12                     0                       # What write queue length does an incoming req see
system.mem_ctrls3.wrQLenPdf::13                     0                       # What write queue length does an incoming req see
system.mem_ctrls3.wrQLenPdf::14                     0                       # What write queue length does an incoming req see
system.mem_ctrls3.wrQLenPdf::15                     0                       # What write queue length does an incoming req see
system.mem_ctrls3.wrQLenPdf::16                     0                       # What write queue length does an incoming req see
system.mem_ctrls3.wrQLenPdf::17                     0                       # What write queue length does an incoming req see
system.mem_ctrls3.wrQLenPdf::18                     0                       # What write queue length does an incoming req see
system.mem_ctrls3.wrQLenPdf::19                     0                       # What write queue length does an incoming req see
system.mem_ctrls3.wrQLenPdf::20                     0                       # What write queue length does an incoming req see
system.mem_ctrls3.wrQLenPdf::21                     0                       # What write queue length does an incoming req see
system.mem_ctrls3.wrQLenPdf::22                     0                       # What write queue length does an incoming req see
system.mem_ctrls3.wrQLenPdf::23                     0                       # What write queue length does an incoming req see
system.mem_ctrls3.wrQLenPdf::24                     0                       # What write queue length does an incoming req see
system.mem_ctrls3.wrQLenPdf::25                     0                       # What write queue length does an incoming req see
system.mem_ctrls3.wrQLenPdf::26                     0                       # What write queue length does an incoming req see
system.mem_ctrls3.wrQLenPdf::27                     0                       # What write queue length does an incoming req see
system.mem_ctrls3.wrQLenPdf::28                     0                       # What write queue length does an incoming req see
system.mem_ctrls3.wrQLenPdf::29                     0                       # What write queue length does an incoming req see
system.mem_ctrls3.wrQLenPdf::30                     0                       # What write queue length does an incoming req see
system.mem_ctrls3.wrQLenPdf::31                     0                       # What write queue length does an incoming req see
system.mem_ctrls3.wrQLenPdf::32                     0                       # What write queue length does an incoming req see
system.mem_ctrls3.wrQLenPdf::33                     0                       # What write queue length does an incoming req see
system.mem_ctrls3.wrQLenPdf::34                     0                       # What write queue length does an incoming req see
system.mem_ctrls3.wrQLenPdf::35                     0                       # What write queue length does an incoming req see
system.mem_ctrls3.wrQLenPdf::36                     0                       # What write queue length does an incoming req see
system.mem_ctrls3.wrQLenPdf::37                     0                       # What write queue length does an incoming req see
system.mem_ctrls3.wrQLenPdf::38                     0                       # What write queue length does an incoming req see
system.mem_ctrls3.wrQLenPdf::39                     0                       # What write queue length does an incoming req see
system.mem_ctrls3.wrQLenPdf::40                     0                       # What write queue length does an incoming req see
system.mem_ctrls3.wrQLenPdf::41                     0                       # What write queue length does an incoming req see
system.mem_ctrls3.wrQLenPdf::42                     0                       # What write queue length does an incoming req see
system.mem_ctrls3.wrQLenPdf::43                     0                       # What write queue length does an incoming req see
system.mem_ctrls3.wrQLenPdf::44                     0                       # What write queue length does an incoming req see
system.mem_ctrls3.wrQLenPdf::45                     0                       # What write queue length does an incoming req see
system.mem_ctrls3.wrQLenPdf::46                     0                       # What write queue length does an incoming req see
system.mem_ctrls3.wrQLenPdf::47                     0                       # What write queue length does an incoming req see
system.mem_ctrls3.wrQLenPdf::48                     0                       # What write queue length does an incoming req see
[...]
system.mem_ctrls5.readPktSize::1                    0                       # Read request sizes (log2)
system.mem_ctrls5.readPktSize::2                    0                       # Read request sizes (log2)
system.mem_ctrls5.readPktSize::3                    0                       # Read request sizes (log2)
system.mem_ctrls5.readPktSize::4                    0                       # Read request sizes (log2)
system.mem_ctrls5.readPktSize::5                    0                       # Read request sizes (log2)
system.mem_ctrls5.readPktSize::6                    0                       # Read request sizes (log2)
system.mem_ctrls5.writePktSize::0                   0                       # Write request sizes (log2)
system.mem_ctrls5.writePktSize::1                   0                       # Write request sizes (log2)
system.mem_ctrls5.writePktSize::2                   0                       # Write request sizes (log2)
system.mem_ctrls5.writePktSize::3                   0                       # Write request sizes (log2)
system.mem_ctrls5.writePktSize::4                   0                       # Write request sizes (log2)
system.mem_ctrls5.writePktSize::5                   0                       # Write request sizes (log2)
system.mem_ctrls5.writePktSize::6                   0                       # Write request sizes (log2)
system.mem_ctrls5.rdQLenPdf::0                      0                       # What read queue length does an incoming req see
system.mem_ctrls5.rdQLenPdf::1                      0                       # What read queue length does an incoming req see
system.mem_ctrls5.rdQLenPdf::2                      0                       # What read queue length does an incoming req see
system.mem_ctrls5.rdQLenPdf::3                      0                       # What read queue length does an incoming req see
system.mem_ctrls5.rdQLenPdf::4                      0                       # What read queue length does an incoming req see
system.mem_ctrls5.rdQLenPdf::5                      0                       # What read queue length does an incoming req see
system.mem_ctrls5.rdQLenPdf::6                      0                       # What read queue length does an incoming req see
system.mem_ctrls5.rdQLenPdf::7                      0                       # What read queue length does an incoming req see
system.mem_ctrls5.rdQLenPdf::8                      0                       # What read queue length does an incoming req see
system.mem_ctrls5.rdQLenPdf::9                      0                       # What read queue length does an incoming req see
system.mem_ctrls5.rdQLenPdf::10                     0                       # What read queue length does an incoming req see
system.mem_ctrls5.rdQLenPdf::11                     0                       # What read queue length does an incoming req see
system.mem_ctrls5.rdQLenPdf::12                     0                       # What read queue length does an incoming req see
system.mem_ctrls5.rdQLenPdf::13                     0                       # What read queue length does an incoming req see
system.mem_ctrls5.rdQLenPdf::14                     0                       # What read queue length does an incoming req see
system.mem_ctrls5.rdQLenPdf::15                     0                       # What read queue length does an incoming req see
system.mem_ctrls5.rdQLenPdf::16                     0                       # What read queue length does an incoming req see
system.mem_ctrls5.rdQLenPdf::17                     0                       # What read queue length does an incoming req see
system.mem_ctrls5.rdQLenPdf::18                     0                       # What read queue length does an incoming req see
system.mem_ctrls5.rdQLenPdf::19                     0                       # What read queue length does an incoming req see
system.mem_ctrls5.rdQLenPdf::20                     0                       # What read queue length does an incoming req see
system.mem_ctrls5.rdQLenPdf::21                     0                       # What read queue length does an incoming req see
system.mem_ctrls5.rdQLenPdf::22                     0                       # What read queue length does an incoming req see
system.mem_ctrls5.rdQLenPdf::23                     0                       # What read queue length does an incoming req see
system.mem_ctrls5.rdQLenPdf::24                     0                       # What read queue length does an incoming req see
system.mem_ctrls5.rdQLenPdf::25                     0                       # What read queue length does an incoming req see
system.mem_ctrls5.rdQLenPdf::26                     0                       # What read queue length does an incoming req see
system.mem_ctrls5.rdQLenPdf::27                     0                       # What read queue length does an incoming req see
system.mem_ctrls5.rdQLenPdf::28                     0                       # What read queue length does an incoming req see
system.mem_ctrls5.rdQLenPdf::29                     0                       # What read queue length does an incoming req see
system.mem_ctrls5.rdQLenPdf::30                     0                       # What read queue length does an incoming req see
system.mem_ctrls5.rdQLenPdf::31                     0                       # What read queue length does an incoming req see
system.mem_ctrls5.wrQLenPdf::0                      0                       # What write queue length does an incoming req see
system.mem_ctrls5.wrQLenPdf::1                      0                       # What write queue length does an incoming req see
system.mem_ctrls5.wrQLenPdf::2                      0                       # What write queue length does an incoming req see
system.mem_ctrls5.wrQLenPdf::3                      0                       # What write queue length does an incoming req see
system.mem_ctrls5.wrQLenPdf::4                      0                       # What write queue length does an incoming req see
system.mem_ctrls5.wrQLenPdf::5                      0                       # What write queue length does an incoming req see
system.mem_ctrls5.wrQLenPdf::6                      0                       # What write queue length does an incoming req see
system.mem_ctrls5.wrQLenPdf::7                      0                       # What write queue length does an incoming req see
system.mem_ctrls5.wrQLenPdf::8                      0                       # What write queue length does an incoming req see
system.mem_ctrls5.wrQLenPdf::9                      0                       # What write queue length does an incoming req see
system.mem_ctrls5.wrQLenPdf::10                     0                       # What write queue length does an incoming req see
system.mem_ctrls5.wrQLenPdf::11                     0                       # What write queue length does an incoming req see
system.mem_ctrls5.wrQLenPdf::12                     0                       # What write queue length does an incoming req see
system.mem_ctrls5.wrQLenPdf::13                     0                       # What write queue length does an incoming req see
system.mem_ctrls5.wrQLenPdf::14                     0                       # What write queue length does an incoming req see
system.mem_ctrls5.wrQLenPdf::15                     0                       # What write queue length does an incoming req see
system.mem_ctrls5.wrQLenPdf::16                     0                       # What write queue length does an incoming req see
system.mem_ctrls5.wrQLenPdf::17                     0                       # What write queue length does an incoming req see
system.mem_ctrls5.wrQLenPdf::18                     0                       # What write queue length does an incoming req see
system.mem_ctrls5.wrQLenPdf::19                     0                       # What write queue length does an incoming req see
system.mem_ctrls5.wrQLenPdf::20                     0                       # What write queue length does an incoming req see
system.mem_ctrls5.wrQLenPdf::21                     0                       # What write queue length does an incoming req see
system.mem_ctrls5.wrQLenPdf::22                     0                       # What write queue length does an incoming req see
system.mem_ctrls5.wrQLenPdf::23                     0                       # What write queue length does an incoming req see
system.mem_ctrls5.wrQLenPdf::24                     0                       # What write queue length does an incoming req see
system.mem_ctrls5.wrQLenPdf::25                     0                       # What write queue length does an incoming req see
system.mem_ctrls5.wrQLenPdf::26                     0                       # What write queue length does an incoming req see
system.mem_ctrls5.wrQLenPdf::27                     0                       # What write queue length does an incoming req see
system.mem_ctrls5.wrQLenPdf::28                     0                       # What write queue length does an incoming req see
system.mem_ctrls5.wrQLenPdf::29                     0                       # What write queue length does an incoming req see
system.mem_ctrls5.wrQLenPdf::30                     0                       # What write queue length does an incoming req see
system.mem_ctrls5.wrQLenPdf::31                     0                       # What write queue length does an incoming req see
system.mem_ctrls5.wrQLenPdf::32                     0                       # What write queue length does an incoming req see
system.mem_ctrls5.wrQLenPdf::33                     0                       # What write queue length does an incoming req see
system.mem_ctrls5.wrQLenPdf::34                     0                       # What write queue length does an incoming req see
system.mem_ctrls5.wrQLenPdf::35                     0                       # What write queue length does an incoming req see
system.mem_ctrls5.wrQLenPdf::36                     0                       # What write queue length does an incoming req see
system.mem_ctrls5.wrQLenPdf::37                     0                       # What write queue length does an incoming req see
system.mem_ctrls5.wrQLenPdf::38                     0                       # What write queue length does an incoming req see
system.mem_ctrls5.wrQLenPdf::39                     0                       # What write queue length does an incoming req see
system.mem_ctrls5.wrQLenPdf::40                     0                       # What write queue length does an incoming req see
system.mem_ctrls5.wrQLenPdf::41                     0                       # What write queue length does an incoming req see
system.mem_ctrls5.wrQLenPdf::42                     0                       # What write queue length does an incoming req see
system.mem_ctrls5.wrQLenPdf::43                     0                       # What write queue length does an incoming req see
system.mem_ctrls5.wrQLenPdf::44                     0                       # What write queue length does an incoming req see
system.mem_ctrls5.wrQLenPdf::45                     0                       # What write queue length does an incoming req see
system.mem_ctrls5.wrQLenPdf::46                     0                       # What write queue length does an incoming req see
system.mem_ctrls5.wrQLenPdf::47                     0                       # What write queue length does an incoming req see
system.mem_ctrls5.wrQLenPdf::48                     0                       # What write queue length does an incoming req see
system.mem_ctrls5.wrQLenPdf::49                     0                       # What write queue length does an incoming req see
system.mem_ctrls5.wrQLenPdf::50                     0                       # What write queue length does an incoming req see
system.mem_ctrls5.wrQLenPdf::51                     0                       # What write queue length does an incoming req see
system.mem_ctrls5.wrQLenPdf::52                     0                       # What write queue length does an incoming req see
system.mem_ctrls5.wrQLenPdf::53                     0                       # What write queue length does an incoming req see
system.mem_ctrls5.wrQLenPdf::54                     0                       # What write queue length does an incoming req see
system.mem_ctrls5.wrQLenPdf::55                     0                       # What write queue length does an incoming req see
system.mem_ctrls5.wrQLenPdf::56                     0                       # What write queue length does an incoming req see
system.mem_ctrls5.wrQLenPdf::57                     0                       # What write queue length does an incoming req see
system.mem_ctrls5.wrQLenPdf::58                     0                       # What write queue length does an incoming req see
system.mem_ctrls5.wrQLenPdf::59                     0                       # What write queue length does an incoming req see
system.mem_ctrls5.wrQLenPdf::60                     0                       # What write queue length does an incoming req see
system.mem_ctrls5.wrQLenPdf::61                     0                       # What write queue length does an incoming req see
system.mem_ctrls5.wrQLenPdf::62                     0                       # What write queue length does an incoming req see
system.mem_ctrls5.wrQLenPdf::63                     0                       # What write queue length does an incoming req see
system.mem_ctrls5.bytesReadDRAM                     0                       # Total number of bytes read from DRAM
system.mem_ctrls5.bytesReadWrQ                      0                       # Total number of bytes read from write queue
system.mem_ctrls5.bytesWritten                      0                       # Total number of bytes written to DRAM
system.mem_ctrls5.bytesReadSys                      0                       # Total read bytes from the system interface side
system.mem_ctrls5.bytesWrittenSys                   0                       # Total written bytes from the system interface side
system.mem_ctrls5.avgRdBW                        0.00                       # Average DRAM read bandwidth in MiByte/s
system.mem_ctrls5.avgWrBW                        0.00                       # Average achieved write bandwidth in MiByte/s
system.mem_ctrls5.avgRdBWSys                     0.00                       # Average system read bandwidth in MiByte/s
system.mem_ctrls5.avgWrBWSys                     0.00                       # Average system write bandwidth in MiByte/s
system.mem_ctrls5.peakBW                     12800.00                       # Theoretical peak bandwidth in MiByte/s
system.mem_ctrls5.busUtil                        0.00                       # Data bus utilization in percentage
system.mem_ctrls5.busUtilRead                    0.00                       # Data bus utilization in percentage for reads
system.mem_ctrls5.busUtilWrite                   0.00                       # Data bus utilization in percentage for writes
system.mem_ctrls5.totGap                            0                       # Total gap between requests
system.mem_ctrls5.avgGap                          nan                       # Average gap between requests
system.mem_ctrls5.pageHitRate                     nan                       # Row buffer hit rate, read and write combined
system.mem_ctrls5.rank1.actEnergy                   0                       # Energy for activate commands per rank (pJ)
system.mem_ctrls5.rank1.preEnergy                   0                       # Energy for precharge commands per rank (pJ)
system.mem_ctrls5.rank1.readEnergy                  0                       # Energy for read commands per rank (pJ)
system.mem_ctrls5.rank1.writeEnergy                 0                       # Energy for write commands per rank (pJ)
system.mem_ctrls5.rank1.refreshEnergy    51015120.000000                       # Energy for refresh commands per rank (pJ)
system.mem_ctrls5.rank1.actBackEnergy         9310608                       # Energy for active background per rank (pJ)
system.mem_ctrls5.rank1.preBackEnergy       240675840                       # Energy for precharge background per rank (pJ)
system.mem_ctrls5.rank1.actPowerDownEnergy            0                       # Energy for active power-down per rank (pJ)
system.mem_ctrls5.rank1.prePowerDownEnergy            0                       # Energy for precharge power-down per rank (pJ)
system.mem_ctrls5.rank1.selfRefreshEnergy            0                       # Energy for self refresh per rank (pJ)
system.mem_ctrls5.rank1.totalEnergy         301001568                       # Total energy per rank (pJ)
system.mem_ctrls5.rank1.averagePower       465.098579                       # Core power per rank (mW)
system.mem_ctrls5.rank1.totalIdleTime               0                       # Total Idle time Per DRAM Rank
system.mem_ctrls5.rank1.memoryStateTime::IDLE       625598                       # Time in different power states
system.mem_ctrls5.rank1.memoryStateTime::REF        21580                       # Time in different power states
system.mem_ctrls5.rank1.memoryStateTime::SREF            0                       # Time in different power states
system.mem_ctrls5.rank1.memoryStateTime::PRE_PDN            0                       # Time in different power states
system.mem_ctrls5.rank1.memoryStateTime::ACT            0                       # Time in different power states
system.mem_ctrls5.rank1.memoryStateTime::ACT_PDN            0                       # Time in different power states
system.mem_ctrls5.rank0.actEnergy                   0                       # Energy for activate commands per rank (pJ)
system.mem_ctrls5.rank0.preEnergy                   0                       # Energy for precharge commands per rank (pJ)
system.mem_ctrls5.rank0.readEnergy                  0                       # Energy for read commands per rank (pJ)
system.mem_ctrls5.rank0.writeEnergy                 0                       # Energy for write commands per rank (pJ)
system.mem_ctrls5.rank0.refreshEnergy    51015120.000000                       # Energy for refresh commands per rank (pJ)
system.mem_ctrls5.rank0.actBackEnergy         9310608                       # Energy for active background per rank (pJ)
system.mem_ctrls5.rank0.preBackEnergy       240675840                       # Energy for precharge background per rank (pJ)
system.mem_ctrls5.rank0.actPowerDownEnergy            0                       # Energy for active power-down per rank (pJ)
system.mem_ctrls5.rank0.prePowerDownEnergy            0                       # Energy for precharge power-down per rank (pJ)
system.mem_ctrls5.rank0.selfRefreshEnergy            0                       # Energy for self refresh per rank (pJ)
system.mem_ctrls5.rank0.totalEnergy         301001568                       # Total energy per rank (pJ)
system.mem_ctrls5.rank0.averagePower       465.098579                       # Core power per rank (mW)
system.mem_ctrls5.rank0.totalIdleTime               0                       # Total Idle time Per DRAM Rank
system.mem_ctrls5.rank0.memoryStateTime::IDLE       625598                       # Time in different power states
system.mem_ctrls5.rank0.memoryStateTime::REF        21580                       # Time in different power states
system.mem_ctrls5.rank0.memoryStateTime::SREF            0                       # Time in different power states
system.mem_ctrls5.rank0.memoryStateTime::PRE_PDN            0                       # Time in different power states
system.mem_ctrls5.rank0.memoryStateTime::ACT            0                       # Time in different power states
system.mem_ctrls5.rank0.memoryStateTime::ACT_PDN            0                       # Time in different power states

---------- End Simulation Statistics   ----------
